@<TRIPOS>MOLECULE
*****
 34 36 0 0 0
SMALL
GASTEIGER

@<TRIPOS>ATOM
      1 C         141.4320  138.3053  156.8945 C.ar    1  UNL1        0.1681
      2 C         142.2696  139.2466  157.7084 C.ar    1  UNL1        0.0942
      3 CL        143.7463  139.3405  157.4624 Cl      1  UNL1       -0.0790
      4 C         141.6305  140.0939  158.7684 C.ar    1  UNL1        0.0292
      5 C         140.1538  139.9999  159.0145 C.ar    1  UNL1        0.0535
      6 C         139.3162  139.0587  158.2005 C.ar    1  UNL1        0.0292
      7 C         139.9553  138.2114  157.1405 C.ar    1  UNL1        0.0942
      8 CL        139.1177  137.2701  156.3266 Cl      1  UNL1       -0.0790
      9 N         139.5147  140.8472  160.0745 N.am    1  UNL1       -0.2680
     10 C         139.6449  140.4656  161.5193 C.2     1  UNL1        0.3082
     11 O         140.4141  139.2368  161.9041 O.2     1  UNL1       -0.2522
     12 N         139.0057  141.3130  162.5793 N.am    1  UNL1       -0.2681
     13 H         139.0098  141.6538  159.8219 H       1  UNL1        0.1564
     14 H         138.5008  142.1195  162.3268 H       1  UNL1        0.1564
     15 C         139.1359  140.9314  164.0241 C.ar    1  UNL1        0.0515
     16 C         139.9112  141.8064  164.9639 C.ar    1  UNL1        0.0147
     17 C         140.0414  141.4249  166.4088 C.ar    1  UNL1        0.0012
     18 C         139.3962  140.1684  166.9138 C.ar    1  UNL1        0.0039
     19 C         138.6209  139.2934  165.9738 C.ar    1  UNL1        0.0727
     20 C         138.4908  139.6749  164.5291 C.ar    1  UNL1        0.0186
     21 C         137.9758  138.0368  166.4788 C.3     1  UNL1        0.4186
     22 F         137.3307  136.7803  166.9838 F       1  UNL1       -0.1659
     23 F         137.3801  138.8025  167.6229 F       1  UNL1       -0.1659
     24 F         138.5715  137.2712  165.3347 F       1  UNL1       -0.1659
     25 O         142.0711  137.4580  155.8345 O.3     1  UNL1       -0.4342
     26 C         143.2767  133.9565  157.2615 C.ar    1  UNL1        0.1350
     27 C         143.1491  135.4377  157.0618 C.ar    1  UNL1        0.0922
     28 C         142.1987  135.9768  156.0341 C.ar    1  UNL1        0.2340
     29 N         141.3760  135.0348  155.2060 N.ar    1  UNL1       -0.1889
     30 C         141.5036  133.5536  155.4057 C.ar    1  UNL1        0.2027
     31 N         142.4540  133.0145  156.4334 N.ar    1  UNL1       -0.2090
     32 C         145.1633  132.3011  157.9325 C.3     1  UNL1        0.1096
     33 N         144.2270  133.4174  158.2892 N.pl3   1  UNL1       -0.3165
     34 H         144.2362  133.7962  159.1979 H       1  UNL1        0.1483
@<TRIPOS>BOND
     1    32    33    1
     2    33    26    1
     3    26    27   ar
     4    27    28   ar
     5    28    25    1
     6    25     1    1
     7     1     2   ar
     8     2     3    1
     9     2     4   ar
    10     4     5   ar
    11     5     9    1
    12     9    10   am
    13    10    11    2
    14    10    12   am
    15    12    15    1
    16    15    16   ar
    17    16    17   ar
    18    17    18   ar
    19    18    19   ar
    20    19    21    1
    21    21    22    1
    22    21    23    1
    23    21    24    1
    24    19    20   ar
    25     5     6   ar
    26     6     7   ar
    27     7     8    1
    28    28    29   ar
    29    29    30   ar
    30    30    31   ar
    31    31    26   ar
    32     7     1   ar
    33    20    15   ar
    34    33    34    1
    35     9    13    1
    36    12    14    1
@<TRIPOS>MOLECULE
*****
 34 36 0 0 0
SMALL
GASTEIGER

@<TRIPOS>ATOM
      1 C         138.9888  139.7815  164.9194 C.ar    1  UNL1        0.1681
      2 C         138.7554  138.3758  164.4508 C.ar    1  UNL1        0.0942
      3 CL        138.6070  137.2670  165.4501 Cl      1  UNL1       -0.0790
      4 C         138.6704  138.0789  162.9829 C.ar    1  UNL1        0.0292
      5 C         138.8188  139.1877  161.9836 C.ar    1  UNL1        0.0535
      6 C         139.0521  140.5934  162.4522 C.ar    1  UNL1        0.0292
      7 C         139.1371  140.8903  163.9201 C.ar    1  UNL1        0.0942
      8 CL        139.3705  142.2960  164.3887 Cl      1  UNL1       -0.0790
      9 N         138.7338  138.8908  160.5158 N.am    1  UNL1       -0.2680
     10 C         139.9870  138.7848  159.6983 C.2     1  UNL1        0.3082
     11 O         141.3251  138.9756  160.3486 O.2     1  UNL1       -0.2522
     12 N         139.9020  138.4879  158.2304 N.am    1  UNL1       -0.2681
     13 H         137.8555  138.7656  160.0889 H       1  UNL1        0.1564
     14 H         139.0237  138.3626  157.8036 H       1  UNL1        0.1564
     15 C         141.1551  138.3818  157.4129 C.ar    1  UNL1        0.0515
     16 C         141.8218  139.6228  156.8978 C.ar    1  UNL1        0.0147
     17 C         143.0750  139.5167  156.0802 C.ar    1  UNL1        0.0012
     18 C         143.6614  138.1697  155.7778 C.ar    1  UNL1        0.0039
     19 C         142.9947  136.9286  156.2930 C.ar    1  UNL1        0.0727
     20 C         141.7416  137.0347  157.1105 C.ar    1  UNL1        0.0186
     21 C         143.5811  135.5815  155.9906 C.3     1  UNL1        0.4186
     22 F         144.1676  134.2344  155.6882 F       1  UNL1       -0.1659
     23 F         144.7479  136.2407  155.3167 F       1  UNL1       -0.1659
     24 F         142.4144  134.9223  156.6645 F       1  UNL1       -0.1659
     25 O         139.0737  140.0784  166.3872 O.3     1  UNL1       -0.4342
     26 C         141.7036  139.8320  169.3493 C.ar    1  UNL1        0.1350
     27 C         140.4226  140.0753  168.6078 C.ar    1  UNL1        0.0922
     28 C         140.3548  139.8351  167.1287 C.ar    1  UNL1        0.2340
     29 N         141.5681  139.3515  166.3911 N.ar    1  UNL1       -0.1889
     30 C         142.8491  139.1082  167.1325 C.ar    1  UNL1        0.2027
     31 N         142.9168  139.3485  168.6116 N.ar    1  UNL1       -0.2090
     32 C         141.5197  141.4453  171.3775 C.3     1  UNL1        0.1096
     33 N         141.7713  140.0723  170.8283 N.pl3   1  UNL1       -0.3165
     34 H         141.9809  139.3288  171.4387 H       1  UNL1        0.1483
@<TRIPOS>BOND
     1    32    33    1
     2    33    26    1
     3    26    27   ar
     4    27    28   ar
     5    28    25    1
     6    25     1    1
     7     1     2   ar
     8     2     3    1
     9     2     4   ar
    10     4     5   ar
    11     5     9    1
    12     9    10   am
    13    10    11    2
    14    10    12   am
    15    12    15    1
    16    15    16   ar
    17    16    17   ar
    18    17    18   ar
    19    18    19   ar
    20    19    21    1
    21    21    22    1
    22    21    23    1
    23    21    24    1
    24    19    20   ar
    25     5     6   ar
    26     6     7   ar
    27     7     8    1
    28    28    29   ar
    29    29    30   ar
    30    30    31   ar
    31    31    26   ar
    32     7     1   ar
    33    20    15   ar
    34    33    34    1
    35     9    13    1
    36    12    14    1
@<TRIPOS>MOLECULE
*****
 34 36 0 0 0
SMALL
GASTEIGER

@<TRIPOS>ATOM
      1 C         140.0998  142.5316  165.2674 C.ar    1  UNL1        0.1681
      2 C         139.0782  143.2306  164.4201 C.ar    1  UNL1        0.0942
      3 CL        137.6164  142.9974  164.6623 Cl      1  UNL1       -0.0790
      4 C         139.5185  144.1628  163.3305 C.ar    1  UNL1        0.0292
      5 C         140.9804  144.3960  163.0883 C.ar    1  UNL1        0.0535
      6 C         142.0019  143.6970  163.9356 C.ar    1  UNL1        0.0292
      7 C         141.5616  142.7648  165.0252 C.ar    1  UNL1        0.0942
      8 CL        142.5831  142.0658  165.8725 Cl      1  UNL1       -0.0790
      9 N         141.4208  145.3281  161.9987 N.am    1  UNL1       -0.2680
     10 C         141.2017  144.9586  160.5615 C.2     1  UNL1        0.3082
     11 O         140.5423  143.6569  160.2139 O.2     1  UNL1       -0.2522
     12 N         141.6420  145.8908  159.4719 N.am    1  UNL1       -0.2681
     13 H         141.8535  146.1825  162.2269 H       1  UNL1        0.1564
     14 H         142.0748  146.7451  159.7001 H       1  UNL1        0.1564
     15 C         141.4230  145.5213  158.0348 C.ar    1  UNL1        0.0515
     16 C         142.5294  144.8846  157.2471 C.ar    1  UNL1        0.0147
     17 C         142.3104  144.5151  155.8099 C.ar    1  UNL1        0.0012
     18 C         140.9849  144.7823  155.1604 C.ar    1  UNL1        0.0039
     19 C         139.8785  145.4190  155.9482 C.ar    1  UNL1        0.0727
     20 C         140.0975  145.7885  157.3853 C.ar    1  UNL1        0.0186
     21 C         138.5531  145.6863  155.2987 C.3     1  UNL1        0.4186
     22 F         137.2276  145.9535  154.6492 F       1  UNL1       -0.1659
     23 F         138.1711  144.2479  155.4865 F       1  UNL1       -0.1659
     24 F         138.9351  147.1246  155.1108 F       1  UNL1       -0.1659
     25 O         139.6594  141.5994  166.3570 O.3     1  UNL1       -0.4342
     26 C         139.3761  138.1371  164.4381 C.ar    1  UNL1        0.1350
     27 C         139.7723  139.5451  164.7704 C.ar    1  UNL1        0.0922
     28 C         139.2632  140.1913  166.0247 C.ar    1  UNL1        0.2340
     29 N         138.3579  139.4295  166.9466 N.ar    1  UNL1       -0.1889
     30 C         137.9618  138.0215  166.6143 C.ar    1  UNL1        0.2027
     31 N         138.4709  137.3753  165.3600 N.ar    1  UNL1       -0.2090
     32 C         141.3519  137.5142  162.8701 C.3     1  UNL1        0.1096
     33 N         139.8852  137.4909  163.1838 N.pl3   1  UNL1       -0.3165
     34 H         139.2567  137.0515  162.5664 H       1  UNL1        0.1483
@<TRIPOS>BOND
     1    32    33    1
     2    33    26    1
     3    26    27   ar
     4    27    28   ar
     5    28    25    1
     6    25     1    1
     7     1     2   ar
     8     2     3    1
     9     2     4   ar
    10     4     5   ar
    11     5     9    1
    12     9    10   am
    13    10    11    2
    14    10    12   am
    15    12    15    1
    16    15    16   ar
    17    16    17   ar
    18    17    18   ar
    19    18    19   ar
    20    19    21    1
    21    21    22    1
    22    21    23    1
    23    21    24    1
    24    19    20   ar
    25     5     6   ar
    26     6     7   ar
    27     7     8    1
    28    28    29   ar
    29    29    30   ar
    30    30    31   ar
    31    31    26   ar
    32     7     1   ar
    33    20    15   ar
    34    33    34    1
    35     9    13    1
    36    12    14    1
@<TRIPOS>MOLECULE
*****
 34 36 0 0 0
SMALL
GASTEIGER

@<TRIPOS>ATOM
      1 C         140.0103  138.4294  160.6434 C.ar    1  UNL1        0.1681
      2 C         139.0982  138.1847  161.8089 C.ar    1  UNL1        0.0942
      3 CL        137.6219  138.0381  161.5881 Cl      1  UNL1       -0.0790
      4 C         139.6626  138.0867  163.1953 C.ar    1  UNL1        0.0292
      5 C         141.1391  138.2334  163.4161 C.ar    1  UNL1        0.0535
      6 C         142.0511  138.4780  162.2506 C.ar    1  UNL1        0.0292
      7 C         141.4867  138.5760  160.8643 C.ar    1  UNL1        0.0942
      8 CL        142.3988  138.8206  159.6988 Cl      1  UNL1       -0.0790
      9 N         141.7034  138.1353  164.8024 N.am    1  UNL1       -0.2680
     10 C         141.3292  139.1537  165.8382 C.2     1  UNL1        0.3082
     11 O         140.3907  140.2701  165.4877 O.2     1  UNL1       -0.2522
     12 N         141.8936  139.0557  167.2246 N.am    1  UNL1       -0.2681
     13 H         142.3194  137.4026  165.0324 H       1  UNL1        0.1564
     14 H         142.5096  138.3230  167.4546 H       1  UNL1        0.1564
     15 C         141.5194  140.0740  168.2604 C.ar    1  UNL1        0.0515
     16 C         140.1084  140.1479  168.7640 C.ar    1  UNL1        0.0147
     17 C         139.7342  141.1663  169.7999 C.ar    1  UNL1        0.0012
     18 C         140.7710  142.1107  170.3321 C.ar    1  UNL1        0.0039
     19 C         142.1820  142.0367  169.8284 C.ar    1  UNL1        0.0727
     20 C         142.5562  141.0184  168.7926 C.ar    1  UNL1        0.0186
     21 C         143.2188  142.9811  170.3606 C.3     1  UNL1        0.4186
     22 F         144.2555  143.9255  170.8928 F       1  UNL1       -0.1659
     23 F         142.1633  144.0284  170.5583 F       1  UNL1       -0.1659
     24 F         144.2742  141.9338  170.1629 F       1  UNL1       -0.1659
     25 O         139.4460  138.5274  159.2571 O.3     1  UNL1       -0.4342
     26 C         138.7715  142.4263  158.9512 C.ar    1  UNL1        0.1350
     27 C         139.2864  141.1127  159.4601 C.ar    1  UNL1        0.0922
     28 C         138.9310  139.8411  158.7482 C.ar    1  UNL1        0.2340
     29 N         138.0605  139.8833  157.5273 N.ar    1  UNL1       -0.1889
     30 C         137.5455  141.1970  157.0184 C.ar    1  UNL1        0.2027
     31 N         137.9010  142.4685  157.7304 N.ar    1  UNL1       -0.2090
     32 C         140.1481  144.6262  159.0755 C.3     1  UNL1        0.1096
     33 N         139.1269  143.6979  159.6632 N.pl3   1  UNL1       -0.3165
     34 H         138.6900  143.9231  160.5162 H       1  UNL1        0.1483
@<TRIPOS>BOND
     1    32    33    1
     2    33    26    1
     3    26    27   ar
     4    27    28   ar
     5    28    25    1
     6    25     1    1
     7     1     2   ar
     8     2     3    1
     9     2     4   ar
    10     4     5   ar
    11     5     9    1
    12     9    10   am
    13    10    11    2
    14    10    12   am
    15    12    15    1
    16    15    16   ar
    17    16    17   ar
    18    17    18   ar
    19    18    19   ar
    20    19    21    1
    21    21    22    1
    22    21    23    1
    23    21    24    1
    24    19    20   ar
    25     5     6   ar
    26     6     7   ar
    27     7     8    1
    28    28    29   ar
    29    29    30   ar
    30    30    31   ar
    31    31    26   ar
    32     7     1   ar
    33    20    15   ar
    34    33    34    1
    35     9    13    1
    36    12    14    1
@<TRIPOS>MOLECULE
*****
 34 36 0 0 0
SMALL
GASTEIGER

@<TRIPOS>ATOM
      1 C         143.2998  140.5804  165.6803 C.ar    1  UNL1        0.1681
      2 C         143.7667  139.2177  165.2619 C.ar    1  UNL1        0.0942
      3 CL        143.8898  138.1220  166.2789 Cl      1  UNL1       -0.0790
      4 C         144.1104  138.9506  163.8264 C.ar    1  UNL1        0.0292
      5 C         143.9873  140.0463  162.8094 C.ar    1  UNL1        0.0535
      6 C         143.5205  141.4090  163.2278 C.ar    1  UNL1        0.0292
      7 C         143.1767  141.6760  164.6632 C.ar    1  UNL1        0.0942
      8 CL        142.7098  143.0388  165.0816 Cl      1  UNL1       -0.0790
      9 N         144.3311  139.7792  161.3739 N.am    1  UNL1       -0.2680
     10 C         143.2961  139.2123  160.4478 C.2     1  UNL1        0.3082
     11 O         141.9175  138.9126  160.9572 O.2     1  UNL1       -0.2522
     12 N         143.6398  138.9453  159.0124 N.am    1  UNL1       -0.2681
     13 H         145.2359  139.9760  161.0396 H       1  UNL1        0.1564
     14 H         144.5447  139.1420  158.6781 H       1  UNL1        0.1564
     15 C         142.6050  138.3784  158.0863 C.ar    1  UNL1        0.0515
     16 C         141.3493  139.1485  157.8034 C.ar    1  UNL1        0.0147
     17 C         140.3143  138.5817  156.8773 C.ar    1  UNL1        0.0012
     18 C         140.5352  137.2447  156.2341 C.ar    1  UNL1        0.0039
     19 C         141.7910  136.4746  156.5169 C.ar    1  UNL1        0.0727
     20 C         142.8258  137.0415  157.4430 C.ar    1  UNL1        0.0186
     21 C         142.0118  135.1376  155.8737 C.3     1  UNL1        0.4186
     22 F         142.2327  133.8007  155.2305 F       1  UNL1       -0.1659
     23 F         141.4514  135.6646  154.5860 F       1  UNL1       -0.1659
     24 F         142.5723  134.6107  157.1614 F       1  UNL1       -0.1659
     25 O         142.9560  140.8475  167.1157 O.3     1  UNL1       -0.4342
     26 C         139.1936  139.5908  167.2386 C.ar    1  UNL1        0.1350
     27 C         140.5472  139.9625  166.7099 C.ar    1  UNL1        0.0922
     28 C         141.6024  140.4757  167.6444 C.ar    1  UNL1        0.2340
     29 N         141.3039  140.6172  169.1076 N.ar    1  UNL1       -0.1889
     30 C         139.9503  140.2454  169.6362 C.ar    1  UNL1        0.2027
     31 N         138.8952  139.7322  168.7017 N.ar    1  UNL1       -0.2090
     32 C         138.4867  138.7643  164.8791 C.3     1  UNL1        0.1096
     33 N         138.1385  139.0775  166.3041 N.pl3   1  UNL1       -0.3165
     34 H         137.2174  138.9463  166.6260 H       1  UNL1        0.1483
@<TRIPOS>BOND
     1    32    33    1
     2    33    26    1
     3    26    27   ar
     4    27    28   ar
     5    28    25    1
     6    25     1    1
     7     1     2   ar
     8     2     3    1
     9     2     4   ar
    10     4     5   ar
    11     5     9    1
    12     9    10   am
    13    10    11    2
    14    10    12   am
    15    12    15    1
    16    15    16   ar
    17    16    17   ar
    18    17    18   ar
    19    18    19   ar
    20    19    21    1
    21    21    22    1
    22    21    23    1
    23    21    24    1
    24    19    20   ar
    25     5     6   ar
    26     6     7   ar
    27     7     8    1
    28    28    29   ar
    29    29    30   ar
    30    30    31   ar
    31    31    26   ar
    32     7     1   ar
    33    20    15   ar
    34    33    34    1
    35     9    13    1
    36    12    14    1
@<TRIPOS>MOLECULE
*****
 34 36 0 0 0
SMALL
GASTEIGER

@<TRIPOS>ATOM
      1 C         141.0508  143.6074  164.8710 C.ar    1  UNL1        0.1681
      2 C         140.0966  144.6014  164.2780 C.ar    1  UNL1        0.0942
      3 CL        138.8814  145.0260  165.0479 Cl      1  UNL1       -0.0790
      4 C         140.3578  145.1708  162.9150 C.ar    1  UNL1        0.0292
      5 C         141.5732  144.7461  162.1451 C.ar    1  UNL1        0.0535
      6 C         142.5273  143.7522  162.7382 C.ar    1  UNL1        0.0292
      7 C         142.2661  143.1828  164.1011 C.ar    1  UNL1        0.0942
      8 CL        143.2202  142.1889  164.6942 Cl      1  UNL1       -0.0790
      9 N         141.8343  145.3154  160.7821 N.am    1  UNL1       -0.2680
     10 C         140.8137  145.1558  159.6945 C.2     1  UNL1        0.3082
     11 O         139.5320  144.4269  159.9698 O.2     1  UNL1       -0.2522
     12 N         141.0749  145.7251  158.3315 N.am    1  UNL1       -0.2681
     13 H         142.6756  145.7939  160.6014 H       1  UNL1        0.1564
     14 H         141.9162  146.2036  158.1508 H       1  UNL1        0.1564
     15 C         140.0544  145.5655  157.2439 C.ar    1  UNL1        0.0515
     16 C         139.5795  146.7654  156.4792 C.ar    1  UNL1        0.0147
     17 C         138.5589  146.6058  155.3915 C.ar    1  UNL1        0.0012
     18 C         138.0133  145.2464  155.0685 C.ar    1  UNL1        0.0039
     19 C         138.4882  144.0465  155.8333 C.ar    1  UNL1        0.0727
     20 C         139.5088  144.2061  156.9210 C.ar    1  UNL1        0.0186
     21 C         137.9426  142.6871  155.5104 C.3     1  UNL1        0.4186
     22 F         137.3970  141.3277  155.1875 F       1  UNL1       -0.1659
     23 F         138.5710  142.7580  154.1502 F       1  UNL1       -0.1659
     24 F         137.3142  142.6162  156.8706 F       1  UNL1       -0.1659
     25 O         140.7896  143.0381  166.2340 O.3     1  UNL1       -0.4342
     26 C         138.8726  139.6916  165.2980 C.ar    1  UNL1        0.1350
     27 C         139.5677  141.0134  165.1581 C.ar    1  UNL1        0.0922
     28 C         140.0945  141.7162  166.3740 C.ar    1  UNL1        0.2340
     29 N         139.9261  141.0974  167.7299 N.ar    1  UNL1       -0.1889
     30 C         139.2310  139.7756  167.8699 C.ar    1  UNL1        0.2027
     31 N         138.7042  139.0727  166.6540 N.ar    1  UNL1       -0.2090
     32 C         139.2068  137.9971  163.3571 C.3     1  UNL1        0.1096
     33 N         138.3459  138.9887  164.0821 N.pl3   1  UNL1       -0.3165
     34 H         137.4351  139.1782  163.7599 H       1  UNL1        0.1483
@<TRIPOS>BOND
     1    32    33    1
     2    33    26    1
     3    26    27   ar
     4    27    28   ar
     5    28    25    1
     6    25     1    1
     7     1     2   ar
     8     2     3    1
     9     2     4   ar
    10     4     5   ar
    11     5     9    1
    12     9    10   am
    13    10    11    2
    14    10    12   am
    15    12    15    1
    16    15    16   ar
    17    16    17   ar
    18    17    18   ar
    19    18    19   ar
    20    19    21    1
    21    21    22    1
    22    21    23    1
    23    21    24    1
    24    19    20   ar
    25     5     6   ar
    26     6     7   ar
    27     7     8    1
    28    28    29   ar
    29    29    30   ar
    30    30    31   ar
    31    31    26   ar
    32     7     1   ar
    33    20    15   ar
    34    33    34    1
    35     9    13    1
    36    12    14    1
@<TRIPOS>MOLECULE
*****
 34 36 0 0 0
SMALL
GASTEIGER

@<TRIPOS>ATOM
      1 C         142.2813  140.8598  164.1664 C.ar    1  UNL1        0.1681
      2 C         141.7928  141.6006  162.9569 C.ar    1  UNL1        0.0942
      3 CL        140.8147  142.7272  163.1118 Cl      1  UNL1       -0.0790
      4 C         142.2825  141.2147  161.5927 C.ar    1  UNL1        0.0292
      5 C         143.2607  140.0880  161.4379 C.ar    1  UNL1        0.0535
      6 C         143.7491  139.3473  162.6473 C.ar    1  UNL1        0.0292
      7 C         143.2594  139.7332  164.0116 C.ar    1  UNL1        0.0942
      8 CL        143.7478  138.9925  165.2211 Cl      1  UNL1       -0.0790
      9 N         143.7504  139.7021  160.0736 N.am    1  UNL1       -0.2680
     10 C         142.9079  138.8262  159.1943 C.2     1  UNL1        0.3082
     11 O         141.5758  138.3363  159.6793 O.2     1  UNL1       -0.2522
     12 N         143.3977  138.4403  157.8300 N.am    1  UNL1       -0.2681
     13 H         144.6248  140.0237  159.7553 H       1  UNL1        0.1564
     14 H         144.2720  138.7619  157.5117 H       1  UNL1        0.1564
     15 C         142.5552  137.5645  156.9508 C.ar    1  UNL1        0.0515
     16 C         141.4913  138.1722  156.0856 C.ar    1  UNL1        0.0147
     17 C         140.6487  137.2963  155.2062 C.ar    1  UNL1        0.0012
     18 C         140.8703  135.8128  155.1921 C.ar    1  UNL1        0.0039
     19 C         141.9344  135.2052  156.0574 C.ar    1  UNL1        0.0727
     20 C         142.7768  136.0810  156.9367 C.ar    1  UNL1        0.0186
     21 C         142.1559  133.7217  156.0434 C.3     1  UNL1        0.4186
     22 F         142.3775  132.2382  156.0293 F       1  UNL1       -0.1659
     23 F         142.9982  133.8358  157.2793 F       1  UNL1       -0.1659
     24 F         141.3136  133.6076  154.8074 F       1  UNL1       -0.1659
     25 O         141.7915  141.2457  165.5307 O.3     1  UNL1       -0.4342
     26 C         139.2591  139.8567  168.2524 C.ar    1  UNL1        0.1350
     27 C         140.4070  140.5956  167.6308 C.ar    1  UNL1        0.0922
     28 C         140.6436  140.5068  166.1523 C.ar    1  UNL1        0.2340
     29 N         139.7323  139.6791  165.2953 N.ar    1  UNL1       -0.1889
     30 C         138.5845  138.9402  165.9169 C.ar    1  UNL1        0.2027
     31 N         138.3479  139.0290  167.3954 N.ar    1  UNL1       -0.2090
     32 C         140.1809  140.1281  170.6662 C.3     1  UNL1        0.1096
     33 N         139.0225  139.9455  169.7310 N.pl3   1  UNL1       -0.3165
     34 H         138.1069  139.8839  170.0875 H       1  UNL1        0.1483
@<TRIPOS>BOND
     1    32    33    1
     2    33    26    1
     3    26    27   ar
     4    27    28   ar
     5    28    25    1
     6    25     1    1
     7     1     2   ar
     8     2     3    1
     9     2     4   ar
    10     4     5   ar
    11     5     9    1
    12     9    10   am
    13    10    11    2
    14    10    12   am
    15    12    15    1
    16    15    16   ar
    17    16    17   ar
    18    17    18   ar
    19    18    19   ar
    20    19    21    1
    21    21    22    1
    22    21    23    1
    23    21    24    1
    24    19    20   ar
    25     5     6   ar
    26     6     7   ar
    27     7     8    1
    28    28    29   ar
    29    29    30   ar
    30    30    31   ar
    31    31    26   ar
    32     7     1   ar
    33    20    15   ar
    34    33    34    1
    35     9    13    1
    36    12    14    1
@<TRIPOS>MOLECULE
*****
 34 36 0 0 0
SMALL
GASTEIGER

@<TRIPOS>ATOM
      1 C         140.2627  141.0476  159.7051 C.ar    1  UNL1        0.1681
      2 C         140.9139  139.8795  160.3846 C.ar    1  UNL1        0.0942
      3 CL        140.5463  139.5329  161.7969 Cl      1  UNL1       -0.0790
      4 C         141.9328  139.0582  159.6516 C.ar    1  UNL1        0.0292
      5 C         142.3005  139.4048  158.2393 C.ar    1  UNL1        0.0535
      6 C         141.6493  140.5728  157.5599 C.ar    1  UNL1        0.0292
      7 C         140.6304  141.3942  158.2928 C.ar    1  UNL1        0.0942
      8 CL        139.9791  142.5623  157.6134 Cl      1  UNL1       -0.0790
      9 N         143.3194  138.5834  157.5064 N.am    1  UNL1       -0.2680
     10 C         142.9197  137.2844  156.8717 C.2     1  UNL1        0.3082
     11 O         141.5012  136.8068  156.9699 O.2     1  UNL1       -0.2522
     12 N         143.9386  136.4630  156.1387 N.am    1  UNL1       -0.2681
     13 H         144.2504  138.8969  157.4419 H       1  UNL1        0.1564
     14 H         144.8697  136.7765  156.0743 H       1  UNL1        0.1564
     15 C         143.5390  135.1640  155.5040 C.ar    1  UNL1        0.0515
     16 C         142.6822  135.1631  154.2729 C.ar    1  UNL1        0.0147
     17 C         142.2826  133.8641  153.6381 C.ar    1  UNL1        0.0012
     18 C         142.7398  132.5659  154.2346 C.ar    1  UNL1        0.0039
     19 C         143.5966  132.5669  155.4658 C.ar    1  UNL1        0.0727
     20 C         143.9962  133.8659  156.1005 C.ar    1  UNL1        0.0186
     21 C         144.0538  131.2687  156.0623 C.3     1  UNL1        0.4186
     22 F         144.5111  129.9706  156.6588 F       1  UNL1       -0.1659
     23 F         142.6724  130.7074  155.8996 F       1  UNL1       -0.1659
     24 F         145.4353  131.8301  156.2251 F       1  UNL1       -0.1659
     25 O         139.2438  141.8690  160.4380 O.3     1  UNL1       -0.4342
     26 C         141.5585  144.6260  162.1086 C.ar    1  UNL1        0.1350
     27 C         141.1298  143.4133  161.3371 C.ar    1  UNL1        0.0922
     28 C         139.6725  143.0819  161.2096 C.ar    1  UNL1        0.2340
     29 N         138.6438  143.9633  161.8537 N.ar    1  UNL1       -0.1889
     30 C         139.0724  145.1761  162.6252 C.ar    1  UNL1        0.2027
     31 N         140.5298  145.5074  162.7527 N.ar    1  UNL1       -0.2090
     32 C         143.6335  145.1137  163.5941 C.3     1  UNL1        0.1096
     33 N         143.0159  144.9574  162.2361 N.pl3   1  UNL1       -0.3165
     34 H         143.5670  145.0724  161.4285 H       1  UNL1        0.1483
@<TRIPOS>BOND
     1    32    33    1
     2    33    26    1
     3    26    27   ar
     4    27    28   ar
     5    28    25    1
     6    25     1    1
     7     1     2   ar
     8     2     3    1
     9     2     4   ar
    10     4     5   ar
    11     5     9    1
    12     9    10   am
    13    10    11    2
    14    10    12   am
    15    12    15    1
    16    15    16   ar
    17    16    17   ar
    18    17    18   ar
    19    18    19   ar
    20    19    21    1
    21    21    22    1
    22    21    23    1
    23    21    24    1
    24    19    20   ar
    25     5     6   ar
    26     6     7   ar
    27     7     8    1
    28    28    29   ar
    29    29    30   ar
    30    30    31   ar
    31    31    26   ar
    32     7     1   ar
    33    20    15   ar
    34    33    34    1
    35     9    13    1
    36    12    14    1
@<TRIPOS>MOLECULE
*****
 34 36 0 0 0
SMALL
GASTEIGER

@<TRIPOS>ATOM
      1 C         141.4050  142.1142  159.2095 C.ar    1  UNL1        0.1681
      2 C         140.9394  141.7400  157.8335 C.ar    1  UNL1        0.0942
      3 CL        139.7389  142.4144  157.2388 Cl      1  UNL1       -0.0790
      4 C         141.6744  140.6914  157.0524 C.ar    1  UNL1        0.0292
      5 C         142.8750  140.0169  157.6472 C.ar    1  UNL1        0.0535
      6 C         143.3406  140.3911  159.0232 C.ar    1  UNL1        0.0292
      7 C         142.6056  141.4398  159.8043 C.ar    1  UNL1        0.0942
      8 CL        143.0712  141.8139  161.1803 Cl      1  UNL1       -0.0790
      9 N         143.6100  138.9683  156.8661 N.am    1  UNL1       -0.2680
     10 C         143.1141  137.5526  156.8599 C.2     1  UNL1        0.3082
     11 O         141.8834  137.1856  157.6347 O.2     1  UNL1       -0.2522
     12 N         143.8491  136.5040  156.0787 N.am    1  UNL1       -0.2681
     13 H         144.4178  139.2092  156.3575 H       1  UNL1        0.1564
     14 H         144.6570  136.7449  155.5702 H       1  UNL1        0.1564
     15 C         143.3534  135.0883  156.0724 C.ar    1  UNL1        0.0515
     16 C         142.1158  134.7305  155.3041 C.ar    1  UNL1        0.0147
     17 C         141.6200  133.3148  155.2978 C.ar    1  UNL1        0.0012
     18 C         142.3617  132.2569  156.0598 C.ar    1  UNL1        0.0039
     19 C         143.5993  132.6148  156.8282 C.ar    1  UNL1        0.0727
     20 C         144.0951  134.0305  156.8345 C.ar    1  UNL1        0.0186
     21 C         144.3411  131.5570  157.5903 C.3     1  UNL1        0.4186
     22 F         145.0828  130.4991  158.3524 F       1  UNL1       -0.1659
     23 F         143.5762  130.4938  156.8591 F       1  UNL1       -0.1659
     24 F         145.1059  132.6201  158.3216 F       1  UNL1       -0.1659
     25 O         140.6700  143.1628  159.9907 O.3     1  UNL1       -0.4342
     26 C         137.9085  140.9601  161.7995 C.ar    1  UNL1        0.1350
     27 C         139.0468  141.3518  160.9047 C.ar    1  UNL1        0.0922
     28 C         139.5317  142.7711  160.8856 C.ar    1  UNL1        0.2340
     29 N         138.8783  143.7987  161.7614 N.ar    1  UNL1       -0.1889
     30 C         137.7401  143.4070  162.6562 C.ar    1  UNL1        0.2027
     31 N         137.2551  141.9877  162.6753 N.ar    1  UNL1       -0.2090
     32 C         138.3912  138.4147  161.6049 C.3     1  UNL1        0.1096
     33 N         137.4236  139.5407  161.8186 N.pl3   1  UNL1       -0.3165
     34 H         136.4703  139.3483  161.9714 H       1  UNL1        0.1483
@<TRIPOS>BOND
     1    32    33    1
     2    33    26    1
     3    26    27   ar
     4    27    28   ar
     5    28    25    1
     6    25     1    1
     7     1     2   ar
     8     2     3    1
     9     2     4   ar
    10     4     5   ar
    11     5     9    1
    12     9    10   am
    13    10    11    2
    14    10    12   am
    15    12    15    1
    16    15    16   ar
    17    16    17   ar
    18    17    18   ar
    19    18    19   ar
    20    19    21    1
    21    21    22    1
    22    21    23    1
    23    21    24    1
    24    19    20   ar
    25     5     6   ar
    26     6     7   ar
    27     7     8    1
    28    28    29   ar
    29    29    30   ar
    30    30    31   ar
    31    31    26   ar
    32     7     1   ar
    33    20    15   ar
    34    33    34    1
    35     9    13    1
    36    12    14    1
