@<TRIPOS>MOLECULE
*****
 42 47 0 0 0
SMALL
GASTEIGER

@<TRIPOS>ATOM
      1 C         140.1811  142.0312  169.4157 C.ar    1  UNL1        0.0769
      2 C         140.8835  142.8681  168.3880 C.ar    1  UNL1        0.0065
      3 C         140.8835  142.4450  166.9489 C.ar    1  UNL1        0.0016
      4 C         140.1811  141.1851  166.5375 C.ar    1  UNL1        0.0191
      5 C         139.4786  140.3483  167.5652 C.ar    1  UNL1        0.0509
      6 C         139.4786  140.7714  169.0043 C.ar    1  UNL1        0.0211
      7 N         138.8758  139.1655  166.8667 N.am    1  UNL1       -0.2803
      8 C         139.2057  139.2715  165.4073 C.2     1  UNL1        0.2507
      9 O         138.8002  138.2998  164.3389 O.2     1  UNL1       -0.2698
     10 C         140.0124  140.5196  165.2038 C.2     1  UNL1        0.0682
     11 C         140.5551  141.0153  163.8963 C.2     1  UNL1        0.0527
     12 H         138.3551  138.4461  167.2916 H       1  UNL1        0.1552
     13 C         141.3485  142.2873  163.8473 C.ar    1  UNL1        0.0136
     14 C         142.8474  142.2379  163.8736 C.ar    1  UNL1        0.0012
     15 C         143.6408  143.5101  163.8247 C.ar    1  UNL1        0.0000
     16 C         142.9351  144.8316  163.7494 C.ar    1  UNL1        0.0000
     17 C         141.4362  144.8810  163.7232 C.ar    1  UNL1        0.0000
     18 C         140.6429  143.6089  163.7721 C.ar    1  UNL1        0.0012
     19 C         140.1811  142.4543  170.8548 C.2     1  UNL1        0.3414
     20 O         139.0935  143.3474  171.3740 O.2     1  UNL1       -0.2449
     21 C         142.2248  140.9202  171.3235 C.3     1  UNL1        0.2560
     22 O         141.2686  141.9842  171.7747 O.3     1  UNL1       -0.4413
     23 N         140.3045  140.2389  162.6375 N.pl3   1  UNL1       -0.3124
     24 H         140.1559  139.2666  162.6803 H       1  UNL1        0.1522
     25 C         140.2803  140.9438  161.3138 C.ar    1  UNL1        0.0495
     26 C         139.2174  141.9622  161.0256 C.ar    1  UNL1        0.0144
     27 C         139.1932  142.6672  159.7018 C.ar    1  UNL1       -0.0017
     28 C         140.2320  142.3537  158.6661 C.ar    1  UNL1       -0.0067
     29 C         141.2949  141.3354  158.9542 C.ar    1  UNL1        0.0511
     30 C         141.3191  140.6304  160.2780 C.ar    1  UNL1        0.0292
     31 N         142.1805  141.2356  157.7477 N.am    1  UNL1       -0.2574
     32 C         143.3725  140.3369  157.6007 C.2     1  UNL1        0.2457
     33 O         143.7705  139.4289  158.7264 O.2     1  UNL1       -0.2730
     34 C         141.6649  142.1924  156.7139 C.3     1  UNL1        0.1029
     35 C         140.4607  142.8834  157.2815 C.3     1  UNL1        0.0495
     36 C         144.1665  140.3463  156.3282 C.3     1  UNL1        0.1591
     37 N         145.4537  141.1127  156.2529 N.3     1  UNL1       -0.2607
     38 C         146.3993  140.8802  155.1120 C.3     1  UNL1        0.1050
     39 C         147.6866  141.6467  155.0366 C.3     1  UNL1        0.1595
     40 O         148.0281  142.6457  156.1022 O.3     1  UNL1       -0.3508
     41 C         147.0823  142.8782  157.2431 C.3     1  UNL1        0.1595
     42 C         145.7952  142.1117  157.3184 C.3     1  UNL1        0.1050
@<TRIPOS>BOND
     1    21    22    1
     2    22    19    1
     3    19    20    2
     4    19     1    1
     5     1     2   ar
     6     2     3   ar
     7     3     4   ar
     8     4     5   ar
     9     5     6   ar
    10     5     7    1
    11     7     8   am
    12     8     9    2
    13     8    10    1
    14    10    11    2
    15    11    23    1
    16    23    25    1
    17    25    26   ar
    18    26    27   ar
    19    27    28   ar
    20    28    29   ar
    21    29    30   ar
    22    29    31    1
    23    31    32   am
    24    32    33    2
    25    32    36    1
    26    36    37    1
    27    37    38    1
    28    38    39    1
    29    39    40    1
    30    40    41    1
    31    41    42    1
    32    31    34    1
    33    34    35    1
    34    11    13    1
    35    13    14   ar
    36    14    15   ar
    37    15    16   ar
    38    16    17   ar
    39    17    18   ar
    40     6     1   ar
    41    30    25   ar
    42    42    37    1
    43    18    13   ar
    44    10     4    1
    45    35    28    1
    46     7    12    1
    47    23    24    1
@<TRIPOS>MOLECULE
*****
 42 47 0 0 0
SMALL
GASTEIGER

@<TRIPOS>ATOM
      1 C         140.7814  141.9420  169.0808 C.ar    1  UNL1        0.0769
      2 C         141.9080  142.0213  168.0938 C.ar    1  UNL1        0.0065
      3 C         141.8850  141.1695  166.8593 C.ar    1  UNL1        0.0016
      4 C         140.7354  140.2384  166.6119 C.ar    1  UNL1        0.0191
      5 C         139.6087  140.1591  167.5989 C.ar    1  UNL1        0.0509
      6 C         139.6317  141.0109  168.8334 C.ar    1  UNL1        0.0211
      7 N         138.6166  139.1555  167.0903 N.am    1  UNL1       -0.2803
      8 C         139.1301  138.6147  165.7889 C.2     1  UNL1        0.2507
      9 O         138.4530  137.5853  164.9333 O.2     1  UNL1       -0.2698
     10 C         140.4396  139.2840  165.4932 C.2     1  UNL1        0.0682
     11 C         141.3019  139.0413  164.2901 C.2     1  UNL1        0.0527
     12 H         137.7760  138.8972  167.5329 H       1  UNL1        0.1552
     13 C         142.5922  139.7891  164.1289 C.ar    1  UNL1        0.0136
     14 C         143.8830  139.1596  164.5621 C.ar    1  UNL1        0.0012
     15 C         145.1733  139.9074  164.4009 C.ar    1  UNL1        0.0000
     16 C         145.1728  141.2847  163.8066 C.ar    1  UNL1        0.0000
     17 C         143.8820  141.9141  163.3735 C.ar    1  UNL1        0.0000
     18 C         142.5917  141.1663  163.5346 C.ar    1  UNL1        0.0012
     19 C         140.8044  142.7938  170.3153 C.2     1  UNL1        0.3414
     20 O         140.0707  144.1019  170.3377 O.2     1  UNL1       -0.2449
     21 C         142.1125  140.9437  171.5866 C.3     1  UNL1        0.2560
     22 O         141.5611  142.3375  171.5274 O.3     1  UNL1       -0.4413
     23 N         140.8739  138.0510  163.2479 N.pl3   1  UNL1       -0.3124
     24 H         140.9172  137.0861  163.4386 H       1  UNL1        0.1522
     25 C         140.3798  138.5307  161.9154 C.ar    1  UNL1        0.0495
     26 C         138.9147  138.7690  161.7001 C.ar    1  UNL1        0.0144
     27 C         138.4206  139.2487  160.3675 C.ar    1  UNL1       -0.0017
     28 C         139.3918  139.4902  159.2501 C.ar    1  UNL1       -0.0067
     29 C         140.8570  139.2519  159.4654 C.ar    1  UNL1        0.0511
     30 C         141.3510  138.7722  160.7980 C.ar    1  UNL1        0.0292
     31 N         141.5718  139.5743  158.1867 N.am    1  UNL1       -0.2574
     32 C         143.0505  139.4764  157.9543 C.2     1  UNL1        0.2457
     33 O         143.9550  139.0207  159.0608 O.2     1  UNL1       -0.2730
     34 C         140.5484  140.0118  157.1812 C.3     1  UNL1        0.1029
     35 C         139.2010  139.9598  157.8384 C.3     1  UNL1        0.0495
     36 C         143.6246  139.8341  156.6155 C.3     1  UNL1        0.1591
     37 N         144.8456  140.7013  156.5305 N.3     1  UNL1       -0.2607
     38 C         145.0585  141.7971  157.5325 C.3     1  UNL1        0.1050
     39 C         146.2795  142.6642  157.4475 C.3     1  UNL1        0.1595
     40 O         147.2876  142.4356  156.3606 O.3     1  UNL1       -0.3508
     41 C         147.0747  141.3397  155.3586 C.3     1  UNL1        0.1595
     42 C         145.8537  140.4726  155.4436 C.3     1  UNL1        0.1050
@<TRIPOS>BOND
     1    21    22    1
     2    22    19    1
     3    19    20    2
     4    19     1    1
     5     1     2   ar
     6     2     3   ar
     7     3     4   ar
     8     4     5   ar
     9     5     6   ar
    10     5     7    1
    11     7     8   am
    12     8     9    2
    13     8    10    1
    14    10    11    2
    15    11    23    1
    16    23    25    1
    17    25    26   ar
    18    26    27   ar
    19    27    28   ar
    20    28    29   ar
    21    29    30   ar
    22    29    31    1
    23    31    32   am
    24    32    33    2
    25    32    36    1
    26    36    37    1
    27    37    38    1
    28    38    39    1
    29    39    40    1
    30    40    41    1
    31    41    42    1
    32    31    34    1
    33    34    35    1
    34    11    13    1
    35    13    14   ar
    36    14    15   ar
    37    15    16   ar
    38    16    17   ar
    39    17    18   ar
    40     6     1   ar
    41    30    25   ar
    42    42    37    1
    43    18    13   ar
    44    10     4    1
    45    35    28    1
    46     7    12    1
    47    23    24    1
@<TRIPOS>MOLECULE
*****
 42 47 0 0 0
SMALL
GASTEIGER

@<TRIPOS>ATOM
      1 C         141.3606  141.2876  169.5461 C.ar    1  UNL1        0.0769
      2 C         140.5017  142.1310  168.6512 C.ar    1  UNL1        0.0065
      3 C         140.5759  141.9611  167.1627 C.ar    1  UNL1        0.0016
      4 C         141.5090  140.9477  166.5691 C.ar    1  UNL1        0.0191
      5 C         142.3679  140.1043  167.4640 C.ar    1  UNL1        0.0509
      6 C         142.2937  140.2742  168.9525 C.ar    1  UNL1        0.0211
      7 N         143.1864  139.1939  166.5973 N.am    1  UNL1       -0.2803
      8 C         142.8334  139.4747  165.1668 C.2     1  UNL1        0.2507
      9 O         143.4149  138.7915  163.9646 O.2     1  UNL1       -0.2698
     10 C         141.7967  140.5586  165.1494 C.2     1  UNL1        0.0682
     11 C         141.1595  141.1497  163.9268 C.2     1  UNL1        0.0527
     12 H         143.8405  138.5288  166.9121 H       1  UNL1        0.1552
     13 C         140.1320  142.2336  164.0661 C.ar    1  UNL1        0.0136
     14 C         140.5558  143.6724  164.0722 C.ar    1  UNL1        0.0012
     15 C         139.5283  144.7564  164.2115 C.ar    1  UNL1        0.0000
     16 C         138.0770  144.4014  164.3446 C.ar    1  UNL1        0.0000
     17 C         137.6532  142.9625  164.3385 C.ar    1  UNL1        0.0000
     18 C         138.6807  141.8787  164.1992 C.ar    1  UNL1        0.0012
     19 C         141.2864  141.4575  171.0346 C.2     1  UNL1        0.3414
     20 O         140.3751  140.5840  171.8447 O.2     1  UNL1       -0.2449
     21 C         143.0438  143.3666  170.9043 C.3     1  UNL1        0.2560
     22 O         142.1236  142.5010  171.7130 O.3     1  UNL1       -0.4413
     23 N         141.5497  140.6568  162.5649 N.pl3   1  UNL1       -0.3124
     24 H         142.3884  140.1554  162.4445 H       1  UNL1        0.1522
     25 C         140.6622  140.9279  161.3864 C.ar    1  UNL1        0.0495
     26 C         139.6463  139.9090  160.9624 C.ar    1  UNL1        0.0144
     27 C         138.7588  140.1801  159.7839 C.ar    1  UNL1       -0.0017
     28 C         138.8872  141.4701  159.0294 C.ar    1  UNL1       -0.0067
     29 C         139.9031  142.4890  159.4534 C.ar    1  UNL1        0.0511
     30 C         140.7906  142.2179  160.6319 C.ar    1  UNL1        0.0292
     31 N         139.8002  143.6611  158.5230 N.am    1  UNL1       -0.2574
     32 C         140.6310  144.9087  158.5813 C.2     1  UNL1        0.2457
     33 O         141.6792  145.0628  159.6432 O.2     1  UNL1       -0.2730
     34 C         138.7207  143.3665  157.5240 C.3     1  UNL1        0.1029
     35 C         138.1564  142.0124  157.8370 C.3     1  UNL1        0.0495
     36 C         140.4135  146.0022  157.5778 C.3     1  UNL1        0.1591
     37 N         141.0171  145.8948  156.2089 N.3     1  UNL1       -0.2607
     38 C         142.2280  145.0375  155.9884 C.3     1  UNL1        0.1050
     39 C         142.8317  144.9300  154.6194 C.3     1  UNL1        0.1595
     40 O         142.2244  145.6799  153.4709 O.3     1  UNL1       -0.3508
     41 C         141.0134  146.5372  153.6915 C.3     1  UNL1        0.1595
     42 C         140.4098  146.6446  155.0605 C.3     1  UNL1        0.1050
@<TRIPOS>BOND
     1    21    22    1
     2    22    19    1
     3    19    20    2
     4    19     1    1
     5     1     2   ar
     6     2     3   ar
     7     3     4   ar
     8     4     5   ar
     9     5     6   ar
    10     5     7    1
    11     7     8   am
    12     8     9    2
    13     8    10    1
    14    10    11    2
    15    11    23    1
    16    23    25    1
    17    25    26   ar
    18    26    27   ar
    19    27    28   ar
    20    28    29   ar
    21    29    30   ar
    22    29    31    1
    23    31    32   am
    24    32    33    2
    25    32    36    1
    26    36    37    1
    27    37    38    1
    28    38    39    1
    29    39    40    1
    30    40    41    1
    31    41    42    1
    32    31    34    1
    33    34    35    1
    34    11    13    1
    35    13    14   ar
    36    14    15   ar
    37    15    16   ar
    38    16    17   ar
    39    17    18   ar
    40     6     1   ar
    41    30    25   ar
    42    42    37    1
    43    18    13   ar
    44    10     4    1
    45    35    28    1
    46     7    12    1
    47    23    24    1
@<TRIPOS>MOLECULE
*****
 42 47 0 0 0
SMALL
GASTEIGER

@<TRIPOS>ATOM
      1 C         140.8778  141.2481  169.2776 C.ar    1  UNL1        0.0769
      2 C         142.0165  141.3994  168.3129 C.ar    1  UNL1        0.0065
      3 C         141.9590  140.7268  166.9733 C.ar    1  UNL1        0.0016
      4 C         140.7629  139.9030  166.5984 C.ar    1  UNL1        0.0191
      5 C         139.6242  139.7518  167.5631 C.ar    1  UNL1        0.0509
      6 C         139.6817  140.4243  168.9026 C.ar    1  UNL1        0.0211
      7 N         138.5839  138.8834  166.9198 N.am    1  UNL1       -0.2803
      8 C         139.0797  138.4980  165.5576 C.2     1  UNL1        0.2507
      9 O         138.3559  137.6340  164.5677 O.2     1  UNL1       -0.2698
     10 C         140.4263  139.1282  165.3590 C.2     1  UNL1        0.0682
     11 C         141.2856  139.0051  164.1357 C.2     1  UNL1        0.0527
     12 H         137.7264  138.6137  167.3212 H       1  UNL1        0.1552
     13 C         142.6161  139.6955  164.0811 C.ar    1  UNL1        0.0136
     14 C         143.8599  138.9600  164.4835 C.ar    1  UNL1        0.0012
     15 C         145.1904  139.6506  164.4289 C.ar    1  UNL1        0.0000
     16 C         145.2771  141.0767  163.9718 C.ar    1  UNL1        0.0000
     17 C         144.0333  141.8122  163.5694 C.ar    1  UNL1        0.0000
     18 C         142.7028  141.1216  163.6240 C.ar    1  UNL1        0.0012
     19 C         140.9353  141.9206  170.6171 C.2     1  UNL1        0.3414
     20 O         140.7132  141.1222  171.8673 O.2     1  UNL1       -0.2449
     21 C         140.3321  144.3679  169.9871 C.3     1  UNL1        0.2560
     22 O         141.2150  143.3916  170.7064 O.3     1  UNL1       -0.4413
     23 N         140.8144  138.1915  162.9669 N.pl3   1  UNL1       -0.3124
     24 H         140.1800  137.4516  163.1059 H       1  UNL1        0.1522
     25 C         141.3098  138.5052  161.5863 C.ar    1  UNL1        0.0495
     26 C         142.5842  137.8902  161.0889 C.ar    1  UNL1        0.0144
     27 C         143.0796  138.2039  159.7083 C.ar    1  UNL1       -0.0017
     28 C         142.3005  139.1327  158.8249 C.ar    1  UNL1       -0.0067
     29 C         141.0260  139.7477  159.3223 C.ar    1  UNL1        0.0511
     30 C         140.5306  139.4340  160.7029 C.ar    1  UNL1        0.0292
     31 N         140.4763  140.6201  158.2328 N.am    1  UNL1       -0.2574
     32 C         139.2135  141.4267  158.3019 C.2     1  UNL1        0.2457
     33 O         138.3761  141.4038  159.5460 O.2     1  UNL1       -0.2730
     34 C         141.4111  140.5441  157.0622 C.3     1  UNL1        0.1029
     35 C         142.5385  139.6249  157.4281 C.3     1  UNL1        0.0495
     36 C         138.7883  142.2563  157.1267 C.3     1  UNL1        0.1591
     37 N         139.1860  143.7003  157.0448 N.3     1  UNL1       -0.2607
     38 C         140.0091  144.3146  158.1380 C.3     1  UNL1        0.1050
     39 C         140.4068  145.7587  158.0561 C.3     1  UNL1        0.1595
     40 O         139.9814  146.5883  156.8811 O.3     1  UNL1       -0.3508
     41 C         139.1583  145.9739  155.7879 C.3     1  UNL1        0.1595
     42 C         138.7606  144.5299  155.8698 C.3     1  UNL1        0.1050
@<TRIPOS>BOND
     1    21    22    1
     2    22    19    1
     3    19    20    2
     4    19     1    1
     5     1     2   ar
     6     2     3   ar
     7     3     4   ar
     8     4     5   ar
     9     5     6   ar
    10     5     7    1
    11     7     8   am
    12     8     9    2
    13     8    10    1
    14    10    11    2
    15    11    23    1
    16    23    25    1
    17    25    26   ar
    18    26    27   ar
    19    27    28   ar
    20    28    29   ar
    21    29    30   ar
    22    29    31    1
    23    31    32   am
    24    32    33    2
    25    32    36    1
    26    36    37    1
    27    37    38    1
    28    38    39    1
    29    39    40    1
    30    40    41    1
    31    41    42    1
    32    31    34    1
    33    34    35    1
    34    11    13    1
    35    13    14   ar
    36    14    15   ar
    37    15    16   ar
    38    16    17   ar
    39    17    18   ar
    40     6     1   ar
    41    30    25   ar
    42    42    37    1
    43    18    13   ar
    44    10     4    1
    45    35    28    1
    46     7    12    1
    47    23    24    1
@<TRIPOS>MOLECULE
*****
 42 47 0 0 0
SMALL
GASTEIGER

@<TRIPOS>ATOM
      1 C         140.2467  140.2612  168.7114 C.ar    1  UNL1        0.0769
      2 C         141.5323  140.5222  167.9840 C.ar    1  UNL1        0.0065
      3 C         141.6225  140.2732  166.5075 C.ar    1  UNL1        0.0016
      4 C         140.4271  139.7633  165.7585 C.ar    1  UNL1        0.0191
      5 C         139.1416  139.5024  166.4859 C.ar    1  UNL1        0.0509
      6 C         139.0514  139.7513  167.9624 C.ar    1  UNL1        0.0211
      7 N         138.1374  139.0051  165.4887 N.am    1  UNL1       -0.2803
      8 C         138.8024  138.9587  164.1450 C.2     1  UNL1        0.2507
      9 O         138.1643  138.5206  162.8601 O.2     1  UNL1       -0.2698
     10 C         140.2175  139.4273  164.3118 C.2     1  UNL1        0.0682
     11 C         141.2430  139.5401  163.2229 C.2     1  UNL1        0.0527
     12 H         137.2055  138.7533  165.6822 H       1  UNL1        0.1552
     13 C         142.6253  140.0272  163.5420 C.ar    1  UNL1        0.0136
     14 C         143.6911  139.0504  163.9418 C.ar    1  UNL1        0.0012
     15 C         145.0736  139.5375  164.2609 C.ar    1  UNL1        0.0000
     16 C         145.3901  141.0015  164.1802 C.ar    1  UNL1        0.0000
     17 C         144.3243  141.9784  163.7804 C.ar    1  UNL1        0.0000
     18 C         142.9420  141.4912  163.4613 C.ar    1  UNL1        0.0012
     19 C         140.1565  140.5102  170.1879 C.2     1  UNL1        0.3414
     20 O         139.5436  139.4774  171.0865 O.2     1  UNL1       -0.2449
     21 C         139.9845  143.0874  170.4675 C.3     1  UNL1        0.2560
     22 O         140.6793  141.7919  170.7657 O.3     1  UNL1       -0.4413
     23 N         140.8862  139.1659  161.8149 N.pl3   1  UNL1       -0.3124
     24 H         140.6606  138.2330  161.5956 H       1  UNL1        0.1522
     25 C         140.8730  140.2129  160.7409 C.ar    1  UNL1        0.0495
     26 C         139.9837  141.4134  160.8746 C.ar    1  UNL1        0.0144
     27 C         139.9705  142.4605  159.8007 C.ar    1  UNL1       -0.0017
     28 C         140.8467  142.3071  158.5929 C.ar    1  UNL1       -0.0067
     29 C         141.7360  141.1066  158.4591 C.ar    1  UNL1        0.0511
     30 C         141.7492  140.0596  159.5331 C.ar    1  UNL1        0.0292
     31 N         142.4847  141.2264  157.1648 N.am    1  UNL1       -0.2574
     32 C         143.4845  140.2440  156.6305 C.2     1  UNL1        0.2457
     33 O         143.8120  139.0067  157.4125 O.2     1  UNL1       -0.2730
     34 C         142.0581  142.5008  156.4987 C.3     1  UNL1        0.1029
     35 C         141.0457  143.1688  157.3813 C.3     1  UNL1        0.0495
     36 C         144.1568  140.4991  155.3140 C.3     1  UNL1        0.1591
     37 N         145.5048  141.1558  155.2751 N.3     1  UNL1       -0.2607
     38 C         146.3086  141.1438  154.0087 C.3     1  UNL1        0.1050
     39 C         147.6567  141.8005  153.9698 C.3     1  UNL1        0.1595
     40 O         148.2009  142.4692  155.1972 O.3     1  UNL1       -0.3508
     41 C         147.3971  142.4812  156.4636 C.3     1  UNL1        0.1595
     42 C         146.0491  141.8245  156.5026 C.3     1  UNL1        0.1050
@<TRIPOS>BOND
     1    21    22    1
     2    22    19    1
     3    19    20    2
     4    19     1    1
     5     1     2   ar
     6     2     3   ar
     7     3     4   ar
     8     4     5   ar
     9     5     6   ar
    10     5     7    1
    11     7     8   am
    12     8     9    2
    13     8    10    1
    14    10    11    2
    15    11    23    1
    16    23    25    1
    17    25    26   ar
    18    26    27   ar
    19    27    28   ar
    20    28    29   ar
    21    29    30   ar
    22    29    31    1
    23    31    32   am
    24    32    33    2
    25    32    36    1
    26    36    37    1
    27    37    38    1
    28    38    39    1
    29    39    40    1
    30    40    41    1
    31    41    42    1
    32    31    34    1
    33    34    35    1
    34    11    13    1
    35    13    14   ar
    36    14    15   ar
    37    15    16   ar
    38    16    17   ar
    39    17    18   ar
    40     6     1   ar
    41    30    25   ar
    42    42    37    1
    43    18    13   ar
    44    10     4    1
    45    35    28    1
    46     7    12    1
    47    23    24    1
@<TRIPOS>MOLECULE
*****
 42 47 0 0 0
SMALL
GASTEIGER

@<TRIPOS>ATOM
      1 C         140.8459  140.3758  169.2409 C.ar    1  UNL1        0.0769
      2 C         140.0322  141.3098  168.3951 C.ar    1  UNL1        0.0065
      3 C         140.3123  141.4282  166.9263 C.ar    1  UNL1        0.0016
      4 C         141.4061  140.6125  166.3032 C.ar    1  UNL1        0.0191
      5 C         142.2198  139.6785  167.1490 C.ar    1  UNL1        0.0509
      6 C         141.9397  139.5602  168.6179 C.ar    1  UNL1        0.0211
      7 N         143.2257  139.0069  166.2618 N.am    1  UNL1       -0.2803
      8 C         143.0336  139.5259  164.8676 C.2     1  UNL1        0.2507
      9 O         143.8269  139.1233  163.6598 O.2     1  UNL1       -0.2698
     10 C         141.9090  140.5182  164.8932 C.2     1  UNL1        0.0682
     11 C         141.3802  141.2821  163.7156 C.2     1  UNL1        0.0527
     12 H         143.8945  138.3422  166.5448 H       1  UNL1        0.1552
     13 C         140.2448  142.2456  163.8951 C.ar    1  UNL1        0.0136
     14 C         138.8289  141.7708  163.7547 C.ar    1  UNL1        0.0012
     15 C         137.6933  142.7345  163.9343 C.ar    1  UNL1        0.0000
     16 C         137.9738  144.1729  164.2542 C.ar    1  UNL1        0.0000
     17 C         139.3898  144.6477  164.3946 C.ar    1  UNL1        0.0000
     18 C         140.5252  143.6841  164.2151 C.ar    1  UNL1        0.0012
     19 C         140.5658  140.2575  170.7098 C.2     1  UNL1        0.3414
     20 O         139.4261  139.4086  171.1900 O.2     1  UNL1       -0.2449
     21 C         142.1765  142.2158  171.2761 C.3     1  UNL1        0.2560
     22 O         141.4253  140.9880  171.6985 O.3     1  UNL1       -0.4413
     23 N         141.9870  141.0825  162.3584 N.pl3   1  UNL1       -0.3124
     24 H         142.6824  140.3984  162.2258 H       1  UNL1        0.1522
     25 C         141.5341  141.9252  161.2031 C.ar    1  UNL1        0.0495
     26 C         142.2222  143.2249  160.9075 C.ar    1  UNL1        0.0144
     27 C         141.7693  144.0676  159.7523 C.ar    1  UNL1       -0.0017
     28 C         140.6282  143.6107  158.8924 C.ar    1  UNL1       -0.0067
     29 C         139.9402  142.3110  159.1880 C.ar    1  UNL1        0.0511
     30 C         140.3930  141.4683  160.3433 C.ar    1  UNL1        0.0292
     31 N         138.8523  142.1212  158.1728 N.am    1  UNL1       -0.2574
     32 C         137.9134  140.9539  158.0944 C.2     1  UNL1        0.2457
     33 O         138.0178  139.8391  159.0924 O.2     1  UNL1       -0.2730
     34 C         138.8681  143.3036  157.2499 C.3     1  UNL1        0.1029
     35 C         139.9657  144.2241  157.6947 C.3     1  UNL1        0.0495
     36 C         136.8702  140.9016  157.0178 C.3     1  UNL1        0.1591
     37 N         137.1204  140.1093  155.7690 N.3     1  UNL1       -0.2607
     38 C         136.0266  139.9401  154.7565 C.3     1  UNL1        0.1050
     39 C         136.2767  139.1478  153.5076 C.3     1  UNL1        0.1595
     40 O         137.6206  138.5248  153.2711 O.3     1  UNL1       -0.3508
     41 C         138.7144  138.6941  154.2836 C.3     1  UNL1        0.1595
     42 C         138.4642  139.4864  155.5325 C.3     1  UNL1        0.1050
@<TRIPOS>BOND
     1    21    22    1
     2    22    19    1
     3    19    20    2
     4    19     1    1
     5     1     2   ar
     6     2     3   ar
     7     3     4   ar
     8     4     5   ar
     9     5     6   ar
    10     5     7    1
    11     7     8   am
    12     8     9    2
    13     8    10    1
    14    10    11    2
    15    11    23    1
    16    23    25    1
    17    25    26   ar
    18    26    27   ar
    19    27    28   ar
    20    28    29   ar
    21    29    30   ar
    22    29    31    1
    23    31    32   am
    24    32    33    2
    25    32    36    1
    26    36    37    1
    27    37    38    1
    28    38    39    1
    29    39    40    1
    30    40    41    1
    31    41    42    1
    32    31    34    1
    33    34    35    1
    34    11    13    1
    35    13    14   ar
    36    14    15   ar
    37    15    16   ar
    38    16    17   ar
    39    17    18   ar
    40     6     1   ar
    41    30    25   ar
    42    42    37    1
    43    18    13   ar
    44    10     4    1
    45    35    28    1
    46     7    12    1
    47    23    24    1
@<TRIPOS>MOLECULE
*****
 42 47 0 0 0
SMALL
GASTEIGER

@<TRIPOS>ATOM
      1 C         140.8848  141.2529  169.2772 C.ar    1  UNL1        0.0769
      2 C         142.0385  141.3951  168.3292 C.ar    1  UNL1        0.0065
      3 C         141.9876  140.7377  166.9819 C.ar    1  UNL1        0.0016
      4 C         140.7830  139.9380  166.5826 C.ar    1  UNL1        0.0191
      5 C         139.6293  139.7958  167.5306 C.ar    1  UNL1        0.0509
      6 C         139.6802  140.4532  168.8779 C.ar    1  UNL1        0.0211
      7 N         138.5833  138.9517  166.8646 N.am    1  UNL1       -0.2803
      8 C         139.0907  138.5723  165.5049 C.2     1  UNL1        0.2507
      9 O         138.3658  137.7309  164.4965 O.2     1  UNL1       -0.2698
     10 C         140.4501  139.1818  165.3307 C.2     1  UNL1        0.0682
     11 C         141.3234  139.0572  164.1175 C.2     1  UNL1        0.0527
     12 H         137.7162  138.6923  167.2518 H       1  UNL1        0.1552
     13 C         142.6657  139.7258  164.0877 C.ar    1  UNL1        0.0136
     14 C         142.7785  141.1636  163.6756 C.ar    1  UNL1        0.0012
     15 C         144.1211  141.8322  163.6458 C.ar    1  UNL1        0.0000
     16 C         145.3507  141.0629  164.0281 C.ar    1  UNL1        0.0000
     17 C         145.2379  139.6250  164.4401 C.ar    1  UNL1        0.0000
     18 C         143.8955  138.9565  164.4699 C.ar    1  UNL1        0.0012
     19 C         140.9357  141.9103  170.6245 C.2     1  UNL1        0.3414
     20 O         140.6791  141.1037  171.8628 O.2     1  UNL1       -0.2449
     21 C         140.3795  144.3768  170.0266 C.3     1  UNL1        0.2560
     22 O         141.2431  143.3744  170.7334 O.3     1  UNL1       -0.4413
     23 N         140.8542  138.2638  162.9340 N.pl3   1  UNL1       -0.3124
     24 H         140.2549  137.4936  163.0640 H       1  UNL1        0.1522
     25 C         141.2982  138.6440  161.5526 C.ar    1  UNL1        0.0495
     26 C         142.3967  137.8755  160.8797 C.ar    1  UNL1        0.0144
     27 C         142.8406  138.2557  159.4983 C.ar    1  UNL1       -0.0017
     28 C         142.1861  139.4044  158.7897 C.ar    1  UNL1       -0.0067
     29 C         141.0876  140.1728  159.4625 C.ar    1  UNL1        0.0511
     30 C         140.6437  139.7927  160.8440 C.ar    1  UNL1        0.0292
     31 N         140.6325  141.2498  158.5228 N.am    1  UNL1       -0.2574
     32 C         139.5502  142.2535  158.7899 C.2     1  UNL1        0.2457
     33 O         138.8152  142.2339  160.0973 O.2     1  UNL1       -0.2730
     34 C         141.4498  141.1469  157.2692 C.3     1  UNL1        0.1029
     35 C         142.4099  140.0063  157.4341 C.3     1  UNL1        0.0495
     36 C         139.2029  143.2766  157.7494 C.3     1  UNL1        0.1591
     37 N         138.1006  143.0051  156.7691 N.3     1  UNL1       -0.2607
     38 C         137.8347  143.9712  155.6529 C.3     1  UNL1        0.1050
     39 C         136.7324  143.6997  154.6725 C.3     1  UNL1        0.1595
     40 O         135.8959  142.4620  154.8083 O.3     1  UNL1       -0.3508
     41 C         136.1618  141.4958  155.9245 C.3     1  UNL1        0.1595
     42 C         137.2641  141.7674  156.9049 C.3     1  UNL1        0.1050
@<TRIPOS>BOND
     1    21    22    1
     2    22    19    1
     3    19    20    2
     4    19     1    1
     5     1     2   ar
     6     2     3   ar
     7     3     4   ar
     8     4     5   ar
     9     5     6   ar
    10     5     7    1
    11     7     8   am
    12     8     9    2
    13     8    10    1
    14    10    11    2
    15    11    23    1
    16    23    25    1
    17    25    26   ar
    18    26    27   ar
    19    27    28   ar
    20    28    29   ar
    21    29    30   ar
    22    29    31    1
    23    31    32   am
    24    32    33    2
    25    32    36    1
    26    36    37    1
    27    37    38    1
    28    38    39    1
    29    39    40    1
    30    40    41    1
    31    41    42    1
    32    31    34    1
    33    34    35    1
    34    11    13    1
    35    13    14   ar
    36    14    15   ar
    37    15    16   ar
    38    16    17   ar
    39    17    18   ar
    40     6     1   ar
    41    30    25   ar
    42    42    37    1
    43    18    13   ar
    44    10     4    1
    45    35    28    1
    46     7    12    1
    47    23    24    1
@<TRIPOS>MOLECULE
*****
 42 47 0 0 0
SMALL
GASTEIGER

@<TRIPOS>ATOM
      1 C         140.9186  142.0224  168.9417 C.ar    1  UNL1        0.0769
      2 C         142.0151  142.0637  167.9190 C.ar    1  UNL1        0.0065
      3 C         141.9510  141.1723  166.7143 C.ar    1  UNL1        0.0016
      4 C         140.7904  140.2396  166.5324 C.ar    1  UNL1        0.0191
      5 C         139.6940  140.1983  167.5551 C.ar    1  UNL1        0.0509
      6 C         139.7581  141.0898  168.7598 C.ar    1  UNL1        0.0211
      7 N         138.6826  139.1839  167.1098 N.am    1  UNL1       -0.2803
      8 C         139.1541  138.5983  165.8118 C.2     1  UNL1        0.2507
      9 O         138.4470  137.5451  165.0112 O.2     1  UNL1       -0.2698
     10 C         140.4568  139.2507  165.4550 C.2     1  UNL1        0.0682
     11 C         141.2811  138.9645  164.2349 C.2     1  UNL1        0.0527
     12 H         137.8547  138.9446  167.5858 H       1  UNL1        0.1552
     13 C         142.5690  139.6999  164.0105 C.ar    1  UNL1        0.0136
     14 C         142.5730  140.9890  163.2436 C.ar    1  UNL1        0.0012
     15 C         143.8610  141.7243  163.0192 C.ar    1  UNL1        0.0000
     16 C         145.1452  141.1705  163.5617 C.ar    1  UNL1        0.0000
     17 C         145.1413  139.8813  164.3286 C.ar    1  UNL1        0.0000
     18 C         143.8532  139.1461  164.5530 C.ar    1  UNL1        0.0012
     19 C         140.9827  142.9139  170.1464 C.2     1  UNL1        0.3414
     20 O         140.5256  144.3392  170.0498 O.2     1  UNL1       -0.2449
     21 C         142.1246  141.0156  171.5037 C.3     1  UNL1        0.2560
     22 O         141.5039  142.3799  171.4476 O.3     1  UNL1       -0.4413
     23 N         140.8175  137.9430  163.2392 N.pl3   1  UNL1       -0.3124
     24 H         140.8131  136.9882  163.4792 H       1  UNL1        0.1522
     25 C         140.3605  138.3761  161.8777 C.ar    1  UNL1        0.0495
     26 C         139.0997  139.1747  161.7286 C.ar    1  UNL1        0.0144
     27 C         138.6427  139.6079  160.3671 C.ar    1  UNL1       -0.0017
     28 C         139.4467  139.2423  159.1547 C.ar    1  UNL1       -0.0067
     29 C         140.7076  138.4437  159.3038 C.ar    1  UNL1        0.0511
     30 C         141.1646  138.0106  160.6653 C.ar    1  UNL1        0.0292
     31 N         141.2879  138.2340  157.9366 N.am    1  UNL1       -0.2574
     32 C         142.5491  137.4865  157.6191 C.2     1  UNL1        0.2457
     33 O         143.3520  136.8669  158.7243 O.2     1  UNL1       -0.2730
     34 C         140.3856  138.9031  156.9425 C.3     1  UNL1        0.1029
     35 C         139.2477  139.5263  157.6953 C.3     1  UNL1        0.0495
     36 C         143.0073  137.3587  156.1966 C.3     1  UNL1        0.1591
     37 N         142.4802  136.2492  155.3357 N.3     1  UNL1       -0.2607
     38 C         142.2115  134.8997  155.9328 C.3     1  UNL1        0.1050
     39 C         141.6843  133.7901  155.0719 C.3     1  UNL1        0.1595
     40 O         141.4259  134.0301  153.6139 O.3     1  UNL1       -0.3508
     41 C         141.6946  135.3798  153.0169 C.3     1  UNL1        0.1595
     42 C         142.2217  136.4892  153.8777 C.3     1  UNL1        0.1050
@<TRIPOS>BOND
     1    21    22    1
     2    22    19    1
     3    19    20    2
     4    19     1    1
     5     1     2   ar
     6     2     3   ar
     7     3     4   ar
     8     4     5   ar
     9     5     6   ar
    10     5     7    1
    11     7     8   am
    12     8     9    2
    13     8    10    1
    14    10    11    2
    15    11    23    1
    16    23    25    1
    17    25    26   ar
    18    26    27   ar
    19    27    28   ar
    20    28    29   ar
    21    29    30   ar
    22    29    31    1
    23    31    32   am
    24    32    33    2
    25    32    36    1
    26    36    37    1
    27    37    38    1
    28    38    39    1
    29    39    40    1
    30    40    41    1
    31    41    42    1
    32    31    34    1
    33    34    35    1
    34    11    13    1
    35    13    14   ar
    36    14    15   ar
    37    15    16   ar
    38    16    17   ar
    39    17    18   ar
    40     6     1   ar
    41    30    25   ar
    42    42    37    1
    43    18    13   ar
    44    10     4    1
    45    35    28    1
    46     7    12    1
    47    23    24    1
@<TRIPOS>MOLECULE
*****
 42 47 0 0 0
SMALL
GASTEIGER

@<TRIPOS>ATOM
      1 C         141.0828  140.3341  167.6098 C.ar    1  UNL1        0.0769
      2 C         141.9771  141.2750  166.8582 C.ar    1  UNL1        0.0065
      3 C         141.4988  141.9087  165.5856 C.ar    1  UNL1        0.0016
      4 C         140.1262  141.6016  165.0645 C.ar    1  UNL1        0.0191
      5 C         139.2319  140.6607  165.8161 C.ar    1  UNL1        0.0509
      6 C         139.7102  140.0270  167.0888 C.ar    1  UNL1        0.0211
      7 N         137.9391  140.5492  165.0635 N.am    1  UNL1       -0.2803
      8 C         138.0345  141.4212  163.8468 C.2     1  UNL1        0.2507
      9 O         136.9658  141.6098  162.8111 O.2     1  UNL1       -0.2698
     10 C         139.3862  142.0716  163.8474 C.2     1  UNL1        0.0682
     11 C         139.9066  143.0247  162.8126 C.2     1  UNL1        0.0527
     12 H         137.1641  140.0002  165.3226 H       1  UNL1        0.1552
     13 C         141.2862  143.5977  162.9469 C.ar    1  UNL1        0.0136
     14 C         142.4603  142.8719  162.3599 C.ar    1  UNL1        0.0012
     15 C         143.8401  143.4451  162.4943 C.ar    1  UNL1        0.0000
     16 C         144.0456  144.7441  163.2157 C.ar    1  UNL1        0.0000
     17 C         142.8715  145.4699  163.8027 C.ar    1  UNL1        0.0000
     18 C         141.4918  144.8968  163.6683 C.ar    1  UNL1        0.0012
     19 C         141.5611  139.7004  168.8825 C.2     1  UNL1        0.3414
     20 O         142.9857  139.2471  169.0053 O.2     1  UNL1       -0.2449
     21 C         140.0118  140.7188  170.7025 C.3     1  UNL1        0.2560
     22 O         140.6149  139.5200  170.0323 O.3     1  UNL1       -0.4413
     23 N         139.0472  143.4047  161.6433 N.pl3   1  UNL1       -0.3124
     24 H         138.0723  143.4847  161.7544 H       1  UNL1        0.1522
     25 C         139.6733  143.6630  160.3050 C.ar    1  UNL1        0.0495
     26 C         140.0780  145.0558  159.9224 C.ar    1  UNL1        0.0144
     27 C         140.7041  145.3141  158.5840 C.ar    1  UNL1       -0.0017
     28 C         140.9255  144.1795  157.6281 C.ar    1  UNL1       -0.0067
     29 C         140.5209  142.7867  158.0107 C.ar    1  UNL1        0.0511
     30 C         139.8948  142.5285  159.3491 C.ar    1  UNL1        0.0292
     31 N         140.8612  141.8752  156.8691 N.am    1  UNL1       -0.2574
     32 C         140.6276  140.3941  156.8236 C.2     1  UNL1        0.2457
     33 O         139.9995  139.6976  157.9941 O.2     1  UNL1       -0.2730
     34 C         141.4762  142.7046  155.7811 C.3     1  UNL1        0.1029
     35 C         141.5160  144.1288  156.2502 C.3     1  UNL1        0.0495
     36 C         141.0221  139.6097  155.6074 C.3     1  UNL1        0.1591
     37 N         142.3489  138.9113  155.5632 N.3     1  UNL1       -0.2607
     38 C         143.5796  139.6646  155.1536 C.3     1  UNL1        0.1050
     39 C         144.9064  138.9662  155.1093 C.3     1  UNL1        0.1595
     40 O         145.0025  137.5146  155.4748 O.3     1  UNL1       -0.3508
     41 C         143.7717  136.7613  155.8845 C.3     1  UNL1        0.1595
     42 C         142.4449  137.4597  155.9287 C.3     1  UNL1        0.1050
@<TRIPOS>BOND
     1    21    22    1
     2    22    19    1
     3    19    20    2
     4    19     1    1
     5     1     2   ar
     6     2     3   ar
     7     3     4   ar
     8     4     5   ar
     9     5     6   ar
    10     5     7    1
    11     7     8   am
    12     8     9    2
    13     8    10    1
    14    10    11    2
    15    11    23    1
    16    23    25    1
    17    25    26   ar
    18    26    27   ar
    19    27    28   ar
    20    28    29   ar
    21    29    30   ar
    22    29    31    1
    23    31    32   am
    24    32    33    2
    25    32    36    1
    26    36    37    1
    27    37    38    1
    28    38    39    1
    29    39    40    1
    30    40    41    1
    31    41    42    1
    32    31    34    1
    33    34    35    1
    34    11    13    1
    35    13    14   ar
    36    14    15   ar
    37    15    16   ar
    38    16    17   ar
    39    17    18   ar
    40     6     1   ar
    41    30    25   ar
    42    42    37    1
    43    18    13   ar
    44    10     4    1
    45    35    28    1
    46     7    12    1
    47    23    24    1
