@<TRIPOS>MOLECULE
*****
 31 33 0 0 0
SMALL
GASTEIGER

@<TRIPOS>ATOM
      1 C         141.5537  139.8745  165.6307 C.2     1  UNL1        0.2488
      2 O         141.6154  141.1319  164.8152 O.2     1  UNL1       -0.2700
      3 N         141.7954  138.5453  164.9789 N.am    1  UNL1       -0.2999
      4 H         141.7549  137.7200  165.5142 H       1  UNL1        0.1498
      5 C         139.8264  139.9874  167.5682 C.ar    1  UNL1        0.1443
      6 C         139.5230  140.0591  169.0354 C.ar    1  UNL1        0.0520
      7 C         140.6433  140.0898  170.0324 C.ar    1  UNL1        0.0553
      8 N         140.3399  140.1615  171.4996 N.pl3   1  UNL1       -0.3563
      9 C         142.0671  140.0487  169.5621 C.ar    1  UNL1        0.0709
     10 CL        143.1874  140.0794  170.5591 Cl      1  UNL1       -0.0810
     11 C         142.3705  139.9769  168.0949 C.ar    1  UNL1        0.0202
     12 C         141.2502  139.9463  167.0979 C.ar    1  UNL1        0.0882
     13 H         139.4054  140.1885  171.8083 H       1  UNL1        0.1424
     14 H         141.0752  140.1817  172.1540 H       1  UNL1        0.1424
     15 C         138.0378  138.6569  166.2338 C.3     1  UNL1        0.2525
     16 O         138.7061  139.9567  166.5713 O.3     1  UNL1       -0.4712
     17 C         142.0989  138.4735  163.5118 C.3     1  UNL1        0.1017
     18 C         141.0074  138.1496  162.5351 C.3     1  UNL1        0.0394
     19 C         141.3110  138.0778  161.0678 C.3     1  UNL1        0.0740
     20 N         142.7059  138.3299  160.5773 N.3     1  UNL1       -0.2689
     21 C         143.7973  138.6538  161.5540 C.3     1  UNL1        0.1037
     22 C         143.4938  138.7256  163.0212 C.3     1  UNL1        0.1490
     23 O         144.5853  139.0494  163.9978 O.3     1  UNL1       -0.3505
     24 C         145.1142  140.4497  164.0943 C.3     1  UNL1        0.1741
     25 C         143.0094  138.2581  159.1101 C.3     1  UNL1        0.0969
     26 C         141.8898  138.1620  158.1165 C.3     1  UNL1        0.1234
     27 N         141.8603  137.0355  157.1264 N.ar    1  UNL1       -0.3235
     28 C         142.8770  135.9390  157.0079 C.ar    1  UNL1        0.0760
     29 C         142.4539  135.0335  155.8894 C.ar    1  UNL1        0.0202
     30 C         141.1757  135.5704  155.3166 C.ar    1  UNL1        0.0202
     31 C         140.8088  136.8076  156.0812 C.ar    1  UNL1        0.0760
@<TRIPOS>BOND
     1    15    16    1
     2    16     5    1
     3     5     6   ar
     4     6     7   ar
     5     7     8    1
     6     7     9   ar
     7     9    10    1
     8     9    11   ar
     9    11    12   ar
    10    12     1    1
    11     1     2    2
    12     1     3   am
    13    17     3    1
    14    17    18    1
    15    18    19    1
    16    19    20    1
    17    20    25    1
    18    25    26    1
    19    26    27    1
    20    27    28   ar
    21    28    29   ar
    22    29    30   ar
    23    30    31   ar
    24    20    21    1
    25    21    22    1
    26    22    23    1
    27    23    24    1
    28    12     5   ar
    29    22    17    1
    30    31    27   ar
    31     8    13    1
    32     8    14    1
    33     3     4    1
@<TRIPOS>MOLECULE
*****
 31 33 0 0 0
SMALL
GASTEIGER

@<TRIPOS>ATOM
      1 C         140.5824  142.7349  165.4933 C.2     1  UNL1        0.2488
      2 O         141.9696  143.2331  165.2153 O.2     1  UNL1       -0.2700
      3 N         139.4959  142.9362  164.4789 N.am    1  UNL1       -0.2999
      4 H         138.5854  142.6092  164.6614 H       1  UNL1        0.1498
      5 C         139.8021  140.6142  166.7754 C.ar    1  UNL1        0.1443
      6 C         139.5013  139.9147  168.0678 C.ar    1  UNL1        0.0520
      7 C         139.6800  140.6365  169.3705 C.ar    1  UNL1        0.0553
      8 N         139.3792  139.9370  170.6629 N.pl3   1  UNL1       -0.3563
      9 C         140.1596  142.0577  169.3808 C.ar    1  UNL1        0.0709
     10 CL        140.3383  142.7795  170.6836 Cl      1  UNL1       -0.0810
     11 C         140.4603  142.7572  168.0885 C.ar    1  UNL1        0.0202
     12 C         140.2816  142.0354  166.7857 C.ar    1  UNL1        0.0882
     13 H         139.0645  139.0042  170.6561 H       1  UNL1        0.1424
     14 H         139.4966  140.4107  171.5180 H       1  UNL1        0.1424
     15 C         138.2479  139.5196  165.0044 C.3     1  UNL1        0.2525
     16 O         139.6233  139.8924  165.4727 O.3     1  UNL1       -0.4712
     17 C         139.7966  143.6356  163.1866 C.3     1  UNL1        0.1017
     18 C         139.7223  145.1317  163.1085 C.3     1  UNL1        0.0394
     19 C         140.0231  145.8312  161.8161 C.3     1  UNL1        0.0740
     20 N         140.3981  145.0345  160.6017 N.3     1  UNL1       -0.2689
     21 C         140.4724  143.5384  160.6798 C.3     1  UNL1        0.1037
     22 C         140.1716  142.8390  161.9721 C.3     1  UNL1        0.1490
     23 O         140.2459  141.3428  162.0502 O.3     1  UNL1       -0.3505
     24 C         141.5188  140.6766  162.4812 C.3     1  UNL1        0.1741
     25 C         140.6988  145.7340  159.3094 C.3     1  UNL1        0.0969
     26 C         140.2491  145.1348  158.0099 C.3     1  UNL1        0.1234
     27 N         140.0853  146.0054  156.7994 N.ar    1  UNL1       -0.3235
     28 C         139.1652  147.1839  156.6789 C.ar    1  UNL1        0.0760
     29 C         139.3241  147.7572  155.3019 C.ar    1  UNL1        0.0202
     30 C         140.3424  146.9329  154.5713 C.ar    1  UNL1        0.0202
     31 C         140.8128  145.8502  155.4968 C.ar    1  UNL1        0.0760
@<TRIPOS>BOND
     1    15    16    1
     2    16     5    1
     3     5     6   ar
     4     6     7   ar
     5     7     8    1
     6     7     9   ar
     7     9    10    1
     8     9    11   ar
     9    11    12   ar
    10    12     1    1
    11     1     2    2
    12     1     3   am
    13    17     3    1
    14    17    18    1
    15    18    19    1
    16    19    20    1
    17    20    25    1
    18    25    26    1
    19    26    27    1
    20    27    28   ar
    21    28    29   ar
    22    29    30   ar
    23    30    31   ar
    24    20    21    1
    25    21    22    1
    26    22    23    1
    27    23    24    1
    28    12     5   ar
    29    22    17    1
    30    31    27   ar
    31     8    13    1
    32     8    14    1
    33     3     4    1
@<TRIPOS>MOLECULE
*****
 31 33 0 0 0
SMALL
GASTEIGER

@<TRIPOS>ATOM
      1 C         141.8704  139.2614  165.8223 C.2     1  UNL1        0.2488
      2 O         142.6179  138.0028  165.4947 O.2     1  UNL1       -0.2700
      3 N         141.4952  140.2170  164.7287 N.am    1  UNL1       -0.2999
      4 H         141.0046  141.0430  164.9437 H       1  UNL1        0.1498
      5 C         140.0820  139.9180  167.5888 C.ar    1  UNL1        0.1443
      6 C         139.7098  140.2209  169.0099 C.ar    1  UNL1        0.0520
      7 C         140.7539  140.1702  170.0858 C.ar    1  UNL1        0.0553
      8 N         140.3816  140.4731  171.5070 N.pl3   1  UNL1       -0.3563
      9 C         142.1701  139.8165  169.7405 C.ar    1  UNL1        0.0709
     10 CL        143.2141  139.7657  170.8163 Cl      1  UNL1       -0.0810
     11 C         142.5422  139.5136  168.3193 C.ar    1  UNL1        0.0202
     12 C         141.4982  139.5643  167.2435 C.ar    1  UNL1        0.0882
     13 H         139.4521  140.7052  171.7336 H       1  UNL1        0.1424
     14 H         141.0668  140.4398  172.2131 H       1  UNL1        0.1424
     15 C         137.9937  138.8952  166.4300 C.3     1  UNL1        0.2525
     16 O         139.0380  139.9688  166.5129 O.3     1  UNL1       -0.4712
     17 C         141.8674  139.9141  163.3076 C.3     1  UNL1        0.1017
     18 C         143.2647  140.1718  162.8270 C.3     1  UNL1        0.0394
     19 C         143.6369  139.8689  161.4058 C.3     1  UNL1        0.0740
     20 N         142.6117  139.3083  160.4652 N.3     1  UNL1       -0.2689
     21 C         141.2143  139.0506  160.9458 C.3     1  UNL1        0.1037
     22 C         140.8422  139.3535  162.3669 C.3     1  UNL1        0.1490
     23 O         139.4448  139.0958  162.8475 O.3     1  UNL1       -0.3505
     24 C         138.9742  137.6883  163.0652 C.3     1  UNL1        0.1741
     25 C         142.9839  139.0054  159.0441 C.3     1  UNL1        0.0969
     26 C         142.2193  137.9709  158.2727 C.3     1  UNL1        0.1234
     27 N         142.9084  137.1656  157.2112 N.ar    1  UNL1       -0.3235
     28 C         143.6116  137.7146  156.0053 C.ar    1  UNL1        0.0760
     29 C         144.1531  136.5583  155.2181 C.ar    1  UNL1        0.0202
     30 C         143.7845  135.2946  155.9374 C.ar    1  UNL1        0.0202
     31 C         143.0152  135.6700  157.1692 C.ar    1  UNL1        0.0760
@<TRIPOS>BOND
     1    15    16    1
     2    16     5    1
     3     5     6   ar
     4     6     7   ar
     5     7     8    1
     6     7     9   ar
     7     9    10    1
     8     9    11   ar
     9    11    12   ar
    10    12     1    1
    11     1     2    2
    12     1     3   am
    13    17     3    1
    14    17    18    1
    15    18    19    1
    16    19    20    1
    17    20    25    1
    18    25    26    1
    19    26    27    1
    20    27    28   ar
    21    28    29   ar
    22    29    30   ar
    23    30    31   ar
    24    20    21    1
    25    21    22    1
    26    22    23    1
    27    23    24    1
    28    12     5   ar
    29    22    17    1
    30    31    27   ar
    31     8    13    1
    32     8    14    1
    33     3     4    1
@<TRIPOS>MOLECULE
*****
 31 33 0 0 0
SMALL
GASTEIGER

@<TRIPOS>ATOM
      1 C         140.2748  142.0969  164.9201 C.2     1  UNL1        0.2488
      2 O         141.2431  141.3310  164.0683 O.2     1  UNL1       -0.2700
      3 N         139.4063  143.1532  164.3038 N.am    1  UNL1       -0.2999
      4 H         138.7707  143.6559  164.8629 H       1  UNL1        0.1498
      5 C         139.6819  140.4696  166.8568 C.ar    1  UNL1        0.1443
      6 C         139.5821  140.1794  168.3250 C.ar    1  UNL1        0.0520
      7 C         139.9754  141.2261  169.3249 C.ar    1  UNL1        0.0553
      8 N         139.8755  140.9357  170.7932 N.pl3   1  UNL1       -0.3563
      9 C         140.4684  142.5630  168.8566 C.ar    1  UNL1        0.0709
     10 CL        140.8617  143.6097  169.8565 Cl      1  UNL1       -0.0810
     11 C         140.5682  142.8533  167.3883 C.ar    1  UNL1        0.0202
     12 C         140.1750  141.8066  166.3884 C.ar    1  UNL1        0.0882
     13 H         139.5519  140.0582  171.1006 H       1  UNL1        0.1424
     14 H         140.1336  141.6227  171.4495 H       1  UNL1        0.1424
     15 C         138.1802  138.4630  166.1726 C.3     1  UNL1        0.2525
     16 O         139.2886  139.4230  165.8569 O.3     1  UNL1       -0.4712
     17 C         139.5060  143.4435  162.8355 C.3     1  UNL1        0.1017
     18 C         138.7627  142.5911  161.8502 C.3     1  UNL1        0.0394
     19 C         138.8626  142.8815  160.3819 C.3     1  UNL1        0.0740
     20 N         139.7057  144.0243  159.8991 N.3     1  UNL1       -0.2689
     21 C         140.4490  144.8767  160.8844 C.3     1  UNL1        0.1037
     22 C         140.3492  144.5864  162.3526 C.3     1  UNL1        0.1490
     23 O         141.0925  145.4388  163.3379 O.3     1  UNL1       -0.3505
     24 C         142.5202  145.1250  163.6741 C.3     1  UNL1        0.1741
     25 C         139.8054  144.3146  158.4308 C.3     1  UNL1        0.0969
     26 C         140.6675  145.4425  157.9462 C.3     1  UNL1        0.1234
     27 N         140.2689  146.2209  156.7275 N.ar    1  UNL1       -0.3235
     28 C         140.9262  146.1486  155.3811 C.ar    1  UNL1        0.0760
     29 C         140.2066  147.0913  154.4628 C.ar    1  UNL1        0.0202
     30 C         139.1045  147.7463  155.2415 C.ar    1  UNL1        0.0202
     31 C         139.1430  147.2083  156.6412 C.ar    1  UNL1        0.0760
@<TRIPOS>BOND
     1    15    16    1
     2    16     5    1
     3     5     6   ar
     4     6     7   ar
     5     7     8    1
     6     7     9   ar
     7     9    10    1
     8     9    11   ar
     9    11    12   ar
    10    12     1    1
    11     1     2    2
    12     1     3   am
    13    17     3    1
    14    17    18    1
    15    18    19    1
    16    19    20    1
    17    20    25    1
    18    25    26    1
    19    26    27    1
    20    27    28   ar
    21    28    29   ar
    22    29    30   ar
    23    30    31   ar
    24    20    21    1
    25    21    22    1
    26    22    23    1
    27    23    24    1
    28    12     5   ar
    29    22    17    1
    30    31    27   ar
    31     8    13    1
    32     8    14    1
    33     3     4    1
@<TRIPOS>MOLECULE
*****
 31 33 0 0 0
SMALL
GASTEIGER

@<TRIPOS>ATOM
      1 C         139.9539  141.5740  165.4313 C.2     1  UNL1        0.2488
      2 O         141.1696  141.9609  164.6425 O.2     1  UNL1       -0.2700
      3 N         138.6853  141.2048  164.7212 N.am    1  UNL1       -0.2999
      4 H         137.8873  140.9509  165.2389 H       1  UNL1        0.1498
      5 C         139.6334  140.3114  167.6793 C.ar    1  UNL1        0.1443
      6 C         139.6863  140.2938  169.1782 C.ar    1  UNL1        0.0520
      7 C         140.1125  141.5209  169.9282 C.ar    1  UNL1        0.0553
      8 N         140.1653  141.5032  171.4272 N.pl3   1  UNL1       -0.3563
      9 C         140.4858  142.7657  169.1792 C.ar    1  UNL1        0.0709
     10 CL        140.9119  143.9929  169.9292 Cl      1  UNL1       -0.0810
     11 C         140.4329  142.7834  167.6803 C.ar    1  UNL1        0.0202
     12 C         140.0067  141.5563  166.9303 C.ar    1  UNL1        0.0882
     13 H         139.9203  140.6861  171.9188 H       1  UNL1        0.1424
     14 H         140.4450  142.3086  171.9195 H       1  UNL1        0.1424
     15 C         137.7731  138.6461  166.9611 C.3     1  UNL1        0.2525
     16 O         139.2073  139.0843  166.9293 O.3     1  UNL1       -0.4712
     17 C         138.6324  141.2225  163.2223 C.3     1  UNL1        0.1017
     18 C         139.0094  139.9970  162.4439 C.3     1  UNL1        0.0394
     19 C         138.9565  140.0147  160.9449 C.3     1  UNL1        0.0740
     20 N         138.5266  141.2580  160.2243 N.3     1  UNL1       -0.2689
     21 C         138.1495  142.4836  161.0026 C.3     1  UNL1        0.1037
     22 C         138.2024  142.4659  162.5016 C.3     1  UNL1        0.1490
     23 O         137.8253  143.6915  163.2799 O.3     1  UNL1       -0.3505
     24 C         138.8699  144.7105  163.6267 C.3     1  UNL1        0.1741
     25 C         138.4737  141.2757  158.7254 C.3     1  UNL1        0.0969
     26 C         138.0525  142.5218  158.0044 C.3     1  UNL1        0.1234
     27 N         137.2361  142.4229  156.7499 N.ar    1  UNL1       -0.3235
     28 C         137.1928  143.4353  155.6439 C.ar    1  UNL1        0.0760
     29 C         136.2496  142.9322  154.5916 C.ar    1  UNL1        0.0202
     30 C         135.7100  141.6088  155.0472 C.ar    1  UNL1        0.0202
     31 C         136.3196  141.2941  156.3811 C.ar    1  UNL1        0.0760
@<TRIPOS>BOND
     1    15    16    1
     2    16     5    1
     3     5     6   ar
     4     6     7   ar
     5     7     8    1
     6     7     9   ar
     7     9    10    1
     8     9    11   ar
     9    11    12   ar
    10    12     1    1
    11     1     2    2
    12     1     3   am
    13    17     3    1
    14    17    18    1
    15    18    19    1
    16    19    20    1
    17    20    25    1
    18    25    26    1
    19    26    27    1
    20    27    28   ar
    21    28    29   ar
    22    29    30   ar
    23    30    31   ar
    24    20    21    1
    25    21    22    1
    26    22    23    1
    27    23    24    1
    28    12     5   ar
    29    22    17    1
    30    31    27   ar
    31     8    13    1
    32     8    14    1
    33     3     4    1
@<TRIPOS>MOLECULE
*****
 31 33 0 0 0
SMALL
GASTEIGER

@<TRIPOS>ATOM
      1 C         139.9501  141.6432  165.2524 C.2     1  UNL1        0.2488
      2 O         141.1428  142.1459  164.4944 O.2     1  UNL1       -0.2700
      3 N         138.7129  141.2266  164.5137 N.am    1  UNL1       -0.2999
      4 H         137.9301  140.8966  165.0112 H       1  UNL1        0.1498
      5 C         139.5878  140.2892  167.4400 C.ar    1  UNL1        0.1443
      6 C         139.6322  140.2031  168.9369 C.ar    1  UNL1        0.0520
      7 C         140.0835  141.3849  169.7430 C.ar    1  UNL1        0.0553
      8 N         140.1280  141.2987  171.2399 N.pl3   1  UNL1       -0.3563
      9 C         140.4904  142.6527  169.0523 C.ar    1  UNL1        0.0709
     10 CL        140.9417  143.8344  169.8585 Cl      1  UNL1       -0.0810
     11 C         140.4459  142.7388  167.5555 C.ar    1  UNL1        0.0202
     12 C         139.9946  141.5570  166.7494 C.ar    1  UNL1        0.0882
     13 H         139.8610  140.4666  171.6933 H       1  UNL1        0.1424
     14 H         140.4242  142.0743  171.7690 H       1  UNL1        0.1424
     15 C         137.7640  138.5386  166.8406 C.3     1  UNL1        0.2525
     16 O         139.1365  139.1075  166.6339 O.3     1  UNL1       -0.4712
     17 C         138.6684  141.3127  163.0168 C.3     1  UNL1        0.1017
     18 C         139.0729  140.1316  162.1853 C.3     1  UNL1        0.0394
     19 C         139.0284  140.2178  160.6884 C.3     1  UNL1        0.0740
     20 N         138.5793  141.4850  160.0231 N.3     1  UNL1       -0.2689
     21 C         138.1748  142.6660  160.8547 C.3     1  UNL1        0.1037
     22 C         138.2193  142.5799  162.3515 C.3     1  UNL1        0.1490
     23 O         137.8148  143.7609  163.1831 O.3     1  UNL1       -0.3505
     24 C         138.8405  144.7752  163.5944 C.3     1  UNL1        0.1741
     25 C         138.5348  141.5711  158.5263 C.3     1  UNL1        0.0969
     26 C         139.7252  142.0798  157.7685 C.3     1  UNL1        0.1234
     27 N         139.8609  143.5458  157.4812 N.ar    1  UNL1       -0.3235
     28 C         140.2409  144.6068  158.4710 C.ar    1  UNL1        0.0760
     29 C         140.2551  145.9249  157.7551 C.ar    1  UNL1        0.0202
     30 C         139.8840  145.6784  156.3227 C.ar    1  UNL1        0.0202
     31 C         139.6403  144.2081  156.1535 C.ar    1  UNL1        0.0760
@<TRIPOS>BOND
     1    15    16    1
     2    16     5    1
     3     5     6   ar
     4     6     7   ar
     5     7     8    1
     6     7     9   ar
     7     9    10    1
     8     9    11   ar
     9    11    12   ar
    10    12     1    1
    11     1     2    2
    12     1     3   am
    13    17     3    1
    14    17    18    1
    15    18    19    1
    16    19    20    1
    17    20    25    1
    18    25    26    1
    19    26    27    1
    20    27    28   ar
    21    28    29   ar
    22    29    30   ar
    23    30    31   ar
    24    20    21    1
    25    21    22    1
    26    22    23    1
    27    23    24    1
    28    12     5   ar
    29    22    17    1
    30    31    27   ar
    31     8    13    1
    32     8    14    1
    33     3     4    1
@<TRIPOS>MOLECULE
*****
 31 33 0 0 0
SMALL
GASTEIGER

@<TRIPOS>ATOM
      1 C         139.8937  141.6494  165.2331 C.2     1  UNL1        0.2488
      2 O         141.1259  141.9964  164.4514 O.2     1  UNL1       -0.2700
      3 N         138.5947  141.4149  164.5207 N.am    1  UNL1       -0.2999
      4 H         137.7860  141.1872  165.0338 H       1  UNL1        0.1498
      5 C         139.5532  140.2608  167.4025 C.ar    1  UNL1        0.1443
      6 C         139.6199  140.1484  168.8967 C.ar    1  UNL1        0.0520
      7 C         140.0941  141.3120  169.7160 C.ar    1  UNL1        0.0553
      8 N         140.1608  141.1995  171.2103 N.pl3   1  UNL1       -0.3563
      9 C         140.5014  142.5881  169.0410 C.ar    1  UNL1        0.0709
     10 CL        140.9755  143.7517  169.8603 Cl      1  UNL1       -0.0810
     11 C         140.4346  142.7005  167.5467 C.ar    1  UNL1        0.0202
     12 C         139.9605  141.5369  166.7275 C.ar    1  UNL1        0.0882
     13 H         139.8935  140.3619  171.6534 H       1  UNL1        0.1424
     14 H         140.4720  141.9632  171.7481 H       1  UNL1        0.1424
     15 C         137.7303  138.4955  166.8452 C.3     1  UNL1        0.2525
     16 O         139.0791  139.0972  166.5832 O.3     1  UNL1       -0.4712
     17 C         138.5279  141.5274  163.0264 C.3     1  UNL1        0.1017
     18 C         138.6855  142.8655  162.3672 C.3     1  UNL1        0.0394
     19 C         138.6187  142.9780  160.8729 C.3     1  UNL1        0.0740
     20 N         138.3943  141.7523  160.0378 N.3     1  UNL1       -0.2689
     21 C         138.2367  140.4142  160.6970 C.3     1  UNL1        0.1037
     22 C         138.3035  140.3017  162.1913 C.3     1  UNL1        0.1490
     23 O         138.1460  138.9635  162.8505 O.3     1  UNL1       -0.3505
     24 C         139.3535  138.1196  163.1326 C.3     1  UNL1        0.1741
     25 C         138.3275  141.8648  158.5436 C.3     1  UNL1        0.0969
     26 C         137.5909  140.8300  157.7457 C.3     1  UNL1        0.1234
     27 N         136.7146  141.2482  156.6023 N.ar    1  UNL1       -0.3235
     28 C         135.3494  140.7084  156.2944 C.ar    1  UNL1        0.0760
     29 C         134.8408  141.4062  155.0679 C.ar    1  UNL1        0.0202
     30 C         135.8917  142.3774  154.6177 C.ar    1  UNL1        0.0202
     31 C         137.0498  142.2797  155.5661 C.ar    1  UNL1        0.0760
@<TRIPOS>BOND
     1    15    16    1
     2    16     5    1
     3     5     6   ar
     4     6     7   ar
     5     7     8    1
     6     7     9   ar
     7     9    10    1
     8     9    11   ar
     9    11    12   ar
    10    12     1    1
    11     1     2    2
    12     1     3   am
    13    17     3    1
    14    17    18    1
    15    18    19    1
    16    19    20    1
    17    20    25    1
    18    25    26    1
    19    26    27    1
    20    27    28   ar
    21    28    29   ar
    22    29    30   ar
    23    30    31   ar
    24    20    21    1
    25    21    22    1
    26    22    23    1
    27    23    24    1
    28    12     5   ar
    29    22    17    1
    30    31    27   ar
    31     8    13    1
    32     8    14    1
    33     3     4    1
@<TRIPOS>MOLECULE
*****
 31 33 0 0 0
SMALL
GASTEIGER

@<TRIPOS>ATOM
      1 C         140.2978  138.4148  163.1665 C.2     1  UNL1        0.2488
      2 O         140.6352  136.9899  162.8410 O.2     1  UNL1       -0.2700
      3 N         140.2908  139.4505  162.0815 N.am    1  UNL1       -0.2999
      4 H         140.0694  140.3857  162.2951 H       1  UNL1        0.1498
      5 C         140.8584  139.7537  165.3213 C.ar    1  UNL1        0.1443
      6 C         140.5279  140.1428  166.7317 C.ar    1  UNL1        0.0520
      7 C         139.3065  139.5821  167.3978 C.ar    1  UNL1        0.0553
      8 N         138.9760  139.9713  168.8084 N.pl3   1  UNL1       -0.3563
      9 C         138.4155  138.6324  166.6535 C.ar    1  UNL1        0.0709
     10 CL        137.1940  138.0718  167.3197 Cl      1  UNL1       -0.0810
     11 C         138.7459  138.2433  165.2431 C.ar    1  UNL1        0.0202
     12 C         139.9674  138.8039  164.5770 C.ar    1  UNL1        0.0882
     13 H         139.5609  140.5946  169.2969 H       1  UNL1        0.1424
     14 H         138.1744  139.6033  169.2456 H       1  UNL1        0.1424
     15 C         143.4189  140.1938  165.3203 C.3     1  UNL1        0.2525
     16 O         142.0799  140.3143  164.6552 O.3     1  UNL1       -0.4712
     17 C         140.6213  139.0614  160.6711 C.3     1  UNL1        0.1017
     18 C         139.5215  138.7183  159.7105 C.3     1  UNL1        0.0394
     19 C         139.8519  138.3292  158.3000 C.3     1  UNL1        0.0740
     20 N         141.2821  138.2833  157.8501 N.3     1  UNL1       -0.2689
     21 C         142.3819  138.6264  158.8107 C.3     1  UNL1        0.1037
     22 C         142.0515  139.0155  160.2212 C.3     1  UNL1        0.1490
     23 O         143.1513  139.3586  161.1817 O.3     1  UNL1       -0.3505
     24 C         143.8274  138.2737  161.9664 C.3     1  UNL1        0.1741
     25 C         141.6125  137.8942  156.4397 C.3     1  UNL1        0.0969
     26 C         141.1724  136.5632  155.9061 C.3     1  UNL1        0.1234
     27 N         142.1045  135.3890  155.9576 N.ar    1  UNL1       -0.3235
     28 C         142.1590  134.2625  154.9687 C.ar    1  UNL1        0.0760
     29 C         143.2339  133.3126  155.4070 C.ar    1  UNL1        0.0202
     30 C         143.8438  133.8520  156.6669 C.ar    1  UNL1        0.0202
     31 C         143.1457  135.1353  157.0072 C.ar    1  UNL1        0.0760
@<TRIPOS>BOND
     1    15    16    1
     2    16     5    1
     3     5     6   ar
     4     6     7   ar
     5     7     8    1
     6     7     9   ar
     7     9    10    1
     8     9    11   ar
     9    11    12   ar
    10    12     1    1
    11     1     2    2
    12     1     3   am
    13    17     3    1
    14    17    18    1
    15    18    19    1
    16    19    20    1
    17    20    25    1
    18    25    26    1
    19    26    27    1
    20    27    28   ar
    21    28    29   ar
    22    29    30   ar
    23    30    31   ar
    24    20    21    1
    25    21    22    1
    26    22    23    1
    27    23    24    1
    28    12     5   ar
    29    22    17    1
    30    31    27   ar
    31     8    13    1
    32     8    14    1
    33     3     4    1
@<TRIPOS>MOLECULE
*****
 31 33 0 0 0
SMALL
GASTEIGER

@<TRIPOS>ATOM
      1 C         141.4241  139.8312  165.6207 C.2     1  UNL1        0.2488
      2 O         141.2197  141.0145  164.7219 O.2     1  UNL1       -0.2700
      3 N         141.8719  138.5205  165.0449 N.am    1  UNL1       -0.2999
      4 H         142.0061  137.7438  165.6349 H       1  UNL1        0.1498
      5 C         139.7798  139.9225  167.6302 C.ar    1  UNL1        0.1443
      6 C         139.5365  140.0498  169.1049 C.ar    1  UNL1        0.0520
      7 C         140.6942  140.2132  170.0447 C.ar    1  UNL1        0.0553
      8 N         140.4508  140.3405  171.5194 N.pl3   1  UNL1       -0.3563
      9 C         142.0951  140.2493  169.5098 C.ar    1  UNL1        0.0709
     10 CL        143.2527  140.4126  170.4496 Cl      1  UNL1       -0.0810
     11 C         142.3384  140.1219  168.0352 C.ar    1  UNL1        0.0202
     12 C         141.1808  139.9585  167.0954 C.ar    1  UNL1        0.0882
     13 H         139.5313  140.3169  171.8704 H       1  UNL1        0.1424
     14 H         141.2106  140.4478  172.1362 H       1  UNL1        0.1424
     15 C         137.7830  138.5170  166.7430 C.3     1  UNL1        0.2525
     16 O         138.6222  139.7591  166.6904 O.3     1  UNL1       -0.4712
     17 C         142.1153  138.3931  163.5703 C.3     1  UNL1        0.1017
     18 C         143.4990  138.5739  163.0202 C.3     1  UNL1        0.0394
     19 C         143.7423  138.4465  161.5455 C.3     1  UNL1        0.0740
     20 N         142.6020  138.1384  160.6210 N.3     1  UNL1       -0.2689
     21 C         141.2183  137.9575  161.1712 C.3     1  UNL1        0.1037
     22 C         140.9749  138.0849  162.6458 C.3     1  UNL1        0.1490
     23 O         139.5912  137.9041  163.1960 O.3     1  UNL1       -0.3505
     24 C         138.5910  139.0169  163.0909 C.3     1  UNL1        0.1741
     25 C         142.8453  138.0110  159.1464 C.3     1  UNL1        0.0969
     26 C         142.5307  139.1580  158.2325 C.3     1  UNL1        0.1234
     27 N         143.2456  140.4664  158.3975 N.ar    1  UNL1       -0.3235
     28 C         144.4812  140.8947  157.6628 C.ar    1  UNL1        0.0760
     29 C         144.8496  142.2691  158.1374 C.ar    1  UNL1        0.0202
     30 C         143.8417  142.6903  159.1654 C.ar    1  UNL1        0.0202
     31 C         142.8503  141.5761  159.3261 C.ar    1  UNL1        0.0760
@<TRIPOS>BOND
     1    15    16    1
     2    16     5    1
     3     5     6   ar
     4     6     7   ar
     5     7     8    1
     6     7     9   ar
     7     9    10    1
     8     9    11   ar
     9    11    12   ar
    10    12     1    1
    11     1     2    2
    12     1     3   am
    13    17     3    1
    14    17    18    1
    15    18    19    1
    16    19    20    1
    17    20    25    1
    18    25    26    1
    19    26    27    1
    20    27    28   ar
    21    28    29   ar
    22    29    30   ar
    23    30    31   ar
    24    20    21    1
    25    21    22    1
    26    22    23    1
    27    23    24    1
    28    12     5   ar
    29    22    17    1
    30    31    27   ar
    31     8    13    1
    32     8    14    1
    33     3     4    1
