@<TRIPOS>MOLECULE
*****
 35 39 0 0 0
SMALL
GASTEIGER

@<TRIPOS>ATOM
      1 C         143.6031  137.6026  156.0454 C.ar    1  UNL1        0.0829
      2 C         144.5626  138.1379  155.0243 C.ar    1  UNL1        0.0193
      3 C         145.1726  139.4959  155.2078 C.ar    1  UNL1        0.0074
      4 C         144.8232  140.3186  156.4124 C.ar    1  UNL1        0.0676
      5 C         145.4333  141.6766  156.5959 C.ar    1  UNL1        0.1376
      6 N         145.0838  142.4993  157.8005 N.ar    1  UNL1       -0.1986
      7 C         144.1242  141.9639  158.8216 C.ar    1  UNL1        0.2227
      8 N         143.5141  140.6059  158.6381 N.ar    1  UNL1       -0.1944
      9 C         143.8636  139.7833  157.4335 C.ar    1  UNL1        0.1678
     10 N         143.2536  138.4253  157.2500 N.ar    1  UNL1       -0.2264
     11 N         146.3928  142.2119  155.5747 N.pl3   1  UNL1       -0.2897
     12 C         147.8506  141.8703  155.6639 C.3     1  UNL1        0.1242
     13 C         148.8102  142.4057  154.6427 C.3     1  UNL1        0.1636
     14 O         148.3118  143.2826  153.5324 O.3     1  UNL1       -0.3502
     15 C         146.8540  143.6242  153.4433 C.3     1  UNL1        0.1618
     16 C         145.8944  143.0889  154.4644 C.3     1  UNL1        0.1038
     17 C         144.4366  143.4305  154.3753 C.3     1  UNL1        0.0241
     18 N         143.7747  142.7866  160.0262 N.pl3   1  UNL1       -0.2753
     19 C         142.4747  143.5336  160.0728 C.3     1  UNL1        0.1109
     20 C         142.1252  144.3563  161.2774 C.3     1  UNL1        0.0939
     21 N         143.0757  144.4319  162.4354 N.3     1  UNL1       -0.2686
     22 C         142.7262  145.2546  163.6400 C.3     1  UNL1        0.0897
     23 C         144.3756  143.6849  162.3888 C.3     1  UNL1        0.0939
     24 C         144.7251  142.8622  161.1842 C.3     1  UNL1        0.1109
     25 C         141.7729  133.5286  155.4950 C.ar    1  UNL1        0.1370
     26 C         141.1278  134.7309  154.8719 C.ar    1  UNL1        0.0367
     27 C         141.7379  136.0890  155.0554 C.ar    1  UNL1        0.0046
     28 C         142.9930  136.2446  155.8619 C.ar    1  UNL1        0.0177
     29 C         143.6380  135.0422  156.4850 C.ar    1  UNL1        0.0027
     30 C         143.0280  133.6843  156.3016 C.ar    1  UNL1        0.0410
     31 C         143.6730  132.4819  156.9247 C.3     1  UNL1        0.1666
     32 O         142.8360  131.4797  157.6629 O.3     1  UNL1       -0.3771
     33 H         142.4619  131.8929  158.4568 H       1  UNL1        0.2109
     34 C         141.4276  131.3928  154.0567 C.3     1  UNL1        0.2525
     35 O         141.1628  132.1706  155.3116 O.3     1  UNL1       -0.4717
@<TRIPOS>BOND
     1    34    35    1
     2    35    25    1
     3    25    26   ar
     4    26    27   ar
     5    27    28   ar
     6    28     1    1
     7     1     2   ar
     8     2     3   ar
     9     3     4   ar
    10     4     5   ar
    11     5    11    1
    12    11    12    1
    13    12    13    1
    14    13    14    1
    15    14    15    1
    16    15    16    1
    17    16    17    1
    18     5     6   ar
    19     6     7   ar
    20     7    18    1
    21    18    19    1
    22    19    20    1
    23    20    21    1
    24    21    22    1
    25    21    23    1
    26    23    24    1
    27     7     8   ar
    28     8     9   ar
    29     9    10   ar
    30    28    29   ar
    31    29    30   ar
    32    30    31    1
    33    31    32    1
    34    30    25   ar
    35    10     1   ar
    36     9     4   ar
    37    16    11    1
    38    24    18    1
    39    32    33    1
@<TRIPOS>MOLECULE
*****
 35 39 0 0 0
SMALL
GASTEIGER

@<TRIPOS>ATOM
      1 C         139.9587  140.5171  163.0061 C.ar    1  UNL1        0.0829
      2 C         139.9894  141.9268  162.4945 C.ar    1  UNL1        0.0193
      3 C         140.3148  142.1953  161.0551 C.ar    1  UNL1        0.0074
      4 C         140.6096  141.0540  160.1273 C.ar    1  UNL1        0.0676
      5 C         140.9351  141.3226  158.6879 C.ar    1  UNL1        0.1376
      6 N         141.2299  140.1814  157.7601 N.ar    1  UNL1       -0.1986
      7 C         141.1992  138.7716  158.2718 C.ar    1  UNL1        0.2227
      8 N         140.8737  138.5032  159.7112 N.ar    1  UNL1       -0.1944
      9 C         140.5789  139.6444  160.6390 C.ar    1  UNL1        0.1678
     10 N         140.2534  139.3759  162.0784 N.ar    1  UNL1       -0.2264
     11 N         140.9658  142.7323  158.1762 N.pl3   1  UNL1       -0.2897
     12 C         142.2420  143.5191  158.2220 C.3     1  UNL1        0.1242
     13 C         142.2727  144.9289  157.7103 C.3     1  UNL1        0.1636
     14 O         141.0272  145.5517  157.1529 O.3     1  UNL1       -0.3502
     15 C         139.7510  144.7648  157.1071 C.3     1  UNL1        0.1618
     16 C         139.7203  143.3551  157.6187 C.3     1  UNL1        0.1038
     17 C         138.4440  142.5682  157.5729 C.3     1  UNL1        0.0241
     18 N         141.4940  137.6304  157.3440 N.pl3   1  UNL1       -0.2753
     19 C         142.8057  136.9086  157.4361 C.3     1  UNL1        0.1109
     20 C         143.1005  135.7674  156.5083 C.3     1  UNL1        0.0939
     21 N         142.0835  135.3480  155.4885 N.3     1  UNL1       -0.2686
     22 C         142.3783  134.2068  154.5607 C.3     1  UNL1        0.0897
     23 C         140.7719  136.0698  155.3965 C.3     1  UNL1        0.0939
     24 C         140.4771  137.2110  156.3242 C.3     1  UNL1        0.1109
     25 C         138.9822  139.7115  167.3245 C.ar    1  UNL1        0.1370
     26 C         139.7800  140.9252  166.9498 C.ar    1  UNL1        0.0367
     27 C         140.1055  141.1937  165.5103 C.ar    1  UNL1        0.0046
     28 C         139.6332  140.2486  164.4456 C.ar    1  UNL1        0.0177
     29 C         138.8354  139.0348  164.8203 C.ar    1  UNL1        0.0027
     30 C         138.5099  138.7663  166.2597 C.ar    1  UNL1        0.0410
     31 C         137.7121  137.5526  166.6345 C.3     1  UNL1        0.1666
     32 O         136.6348  137.6545  167.6732 O.3     1  UNL1       -0.3771
     33 H         137.0335  137.8586  168.5335 H       1  UNL1        0.2109
     34 C         139.2609  140.2943  169.8409 C.3     1  UNL1        0.2525
     35 O         138.6567  139.4429  168.7639 O.3     1  UNL1       -0.4717
@<TRIPOS>BOND
     1    34    35    1
     2    35    25    1
     3    25    26   ar
     4    26    27   ar
     5    27    28   ar
     6    28     1    1
     7     1     2   ar
     8     2     3   ar
     9     3     4   ar
    10     4     5   ar
    11     5    11    1
    12    11    12    1
    13    12    13    1
    14    13    14    1
    15    14    15    1
    16    15    16    1
    17    16    17    1
    18     5     6   ar
    19     6     7   ar
    20     7    18    1
    21    18    19    1
    22    19    20    1
    23    20    21    1
    24    21    22    1
    25    21    23    1
    26    23    24    1
    27     7     8   ar
    28     8     9   ar
    29     9    10   ar
    30    28    29   ar
    31    29    30   ar
    32    30    31    1
    33    31    32    1
    34    30    25   ar
    35    10     1   ar
    36     9     4   ar
    37    16    11    1
    38    24    18    1
    39    32    33    1
@<TRIPOS>MOLECULE
*****
 35 39 0 0 0
SMALL
GASTEIGER

@<TRIPOS>ATOM
      1 C         143.7592  137.8308  155.6564 C.ar    1  UNL1        0.0829
      2 C         144.4092  138.5875  154.5363 C.ar    1  UNL1        0.0193
      3 C         144.7898  140.0261  154.7248 C.ar    1  UNL1        0.0074
      4 C         144.5204  140.7079  156.0335 C.ar    1  UNL1        0.0676
      5 C         144.9010  142.1466  156.2220 C.ar    1  UNL1        0.1376
      6 N         144.6316  142.8284  157.5306 N.ar    1  UNL1       -0.1986
      7 C         143.9815  142.0716  158.6507 C.ar    1  UNL1        0.2227
      8 N         143.6008  140.6330  158.4622 N.ar    1  UNL1       -0.1944
      9 C         143.8703  139.9512  157.1536 C.ar    1  UNL1        0.1678
     10 N         143.4897  138.5126  156.9650 N.ar    1  UNL1       -0.2264
     11 N         145.5511  142.9034  155.1019 N.pl3   1  UNL1       -0.2897
     12 C         144.7063  143.6367  154.1027 C.3     1  UNL1        0.1242
     13 C         145.3564  144.3935  152.9825 C.3     1  UNL1        0.1636
     14 O         146.8513  144.4169  152.8616 O.3     1  UNL1       -0.3502
     15 C         147.6962  143.6835  153.8608 C.3     1  UNL1        0.1618
     16 C         147.0461  142.9267  154.9809 C.3     1  UNL1        0.1038
     17 C         147.8909  142.1934  155.9801 C.3     1  UNL1        0.0241
     18 N         143.7120  142.7534  159.9594 N.pl3   1  UNL1       -0.2753
     19 C         144.7245  142.6836  161.0639 C.3     1  UNL1        0.1109
     20 C         144.4551  143.3654  162.3725 C.3     1  UNL1        0.0939
     21 N         143.1731  144.1170  162.5766 N.3     1  UNL1       -0.2686
     22 C         142.9036  144.7989  163.8853 C.3     1  UNL1        0.0897
     23 C         142.1606  144.1868  161.4721 C.3     1  UNL1        0.0939
     24 C         142.4301  143.5050  160.1635 C.3     1  UNL1        0.1109
     25 C         142.6173  133.5149  155.0910 C.ar    1  UNL1        0.1370
     26 C         142.2283  134.5346  154.0620 C.ar    1  UNL1        0.0367
     27 C         142.6090  135.9733  154.2504 C.ar    1  UNL1        0.0046
     28 C         143.3785  136.3921  155.4679 C.ar    1  UNL1        0.0177
     29 C         143.7675  135.3724  156.4970 C.ar    1  UNL1        0.0027
     30 C         143.3868  133.9338  156.3085 C.ar    1  UNL1        0.0410
     31 C         143.7758  132.9141  157.3376 C.3     1  UNL1        0.1666
     32 O         142.8612  131.7633  157.6361 O.3     1  UNL1       -0.3771
     33 H         142.0436  132.0959  158.0382 H       1  UNL1        0.2109
     34 C         140.9091  131.7246  154.2994 C.3     1  UNL1        0.2525
     35 O         142.2367  132.0763  154.9026 O.3     1  UNL1       -0.4717
@<TRIPOS>BOND
     1    34    35    1
     2    35    25    1
     3    25    26   ar
     4    26    27   ar
     5    27    28   ar
     6    28     1    1
     7     1     2   ar
     8     2     3   ar
     9     3     4   ar
    10     4     5   ar
    11     5    11    1
    12    11    12    1
    13    12    13    1
    14    13    14    1
    15    14    15    1
    16    15    16    1
    17    16    17    1
    18     5     6   ar
    19     6     7   ar
    20     7    18    1
    21    18    19    1
    22    19    20    1
    23    20    21    1
    24    21    22    1
    25    21    23    1
    26    23    24    1
    27     7     8   ar
    28     8     9   ar
    29     9    10   ar
    30    28    29   ar
    31    29    30   ar
    32    30    31    1
    33    31    32    1
    34    30    25   ar
    35    10     1   ar
    36     9     4   ar
    37    16    11    1
    38    24    18    1
    39    32    33    1
@<TRIPOS>MOLECULE
*****
 35 39 0 0 0
SMALL
GASTEIGER

@<TRIPOS>ATOM
      1 C         143.3316  140.3018  161.6855 C.ar    1  UNL1        0.0829
      2 C         143.8324  141.4373  160.8430 C.ar    1  UNL1        0.0193
      3 C         143.9705  141.2662  159.3592 C.ar    1  UNL1        0.0074
      4 C         143.6077  139.9596  158.7179 C.ar    1  UNL1        0.0676
      5 C         143.7459  139.7886  157.2341 C.ar    1  UNL1        0.1376
      6 N         143.3831  138.4820  156.5928 N.ar    1  UNL1       -0.1986
      7 C         142.8822  137.3465  157.4353 C.ar    1  UNL1        0.2227
      8 N         142.7442  137.5176  158.9191 N.ar    1  UNL1       -0.1944
      9 C         143.1069  138.8241  159.5604 C.ar    1  UNL1        0.1678
     10 N         142.9688  138.9952  161.0442 N.ar    1  UNL1       -0.2264
     11 N         144.2467  140.9240  156.3916 N.pl3   1  UNL1       -0.2897
     12 C         145.7162  141.0724  156.1298 C.3     1  UNL1        0.1242
     13 C         146.2170  142.2080  155.2873 C.3     1  UNL1        0.1636
     14 O         145.2484  143.1951  154.7066 O.3     1  UNL1       -0.3502
     15 C         143.7788  143.0467  154.9684 C.3     1  UNL1        0.1618
     16 C         143.2780  141.9112  155.8109 C.3     1  UNL1        0.1038
     17 C         141.8085  141.7628  156.0726 C.3     1  UNL1        0.0241
     18 N         142.5195  136.0399  156.7940 N.pl3   1  UNL1       -0.2753
     19 C         143.2010  134.7763  157.2288 C.3     1  UNL1        0.1109
     20 C         142.8382  133.4697  156.5875 C.3     1  UNL1        0.0939
     21 N         141.7940  133.4267  155.5115 N.3     1  UNL1       -0.2686
     22 C         141.4312  132.1202  154.8702 C.3     1  UNL1        0.0897
     23 C         141.1125  134.6903  155.0768 C.3     1  UNL1        0.0939
     24 C         141.4753  135.9969  155.7181 C.3     1  UNL1        0.1109
     25 C         142.9173  140.8150  166.1370 C.ar    1  UNL1        0.1370
     26 C         142.5995  141.9568  165.2176 C.ar    1  UNL1        0.0367
     27 C         142.7376  141.7857  163.7337 C.ar    1  UNL1        0.0046
     28 C         143.1935  140.4729  163.1693 C.ar    1  UNL1        0.0177
     29 C         143.5113  139.3311  164.0887 C.ar    1  UNL1        0.0027
     30 C         143.3732  139.5021  165.5725 C.ar    1  UNL1        0.0410
     31 C         143.6910  138.3602  166.4918 C.3     1  UNL1        0.1666
     32 O         143.3489  138.4533  167.9493 O.3     1  UNL1       -0.3771
     33 H         143.8838  139.1486  168.3632 H       1  UNL1        0.2109
     34 C         143.0568  142.3184  168.2511 C.3     1  UNL1        0.2525
     35 O         142.7792  140.9860  167.6207 O.3     1  UNL1       -0.4717
@<TRIPOS>BOND
     1    34    35    1
     2    35    25    1
     3    25    26   ar
     4    26    27   ar
     5    27    28   ar
     6    28     1    1
     7     1     2   ar
     8     2     3   ar
     9     3     4   ar
    10     4     5   ar
    11     5    11    1
    12    11    12    1
    13    12    13    1
    14    13    14    1
    15    14    15    1
    16    15    16    1
    17    16    17    1
    18     5     6   ar
    19     6     7   ar
    20     7    18    1
    21    18    19    1
    22    19    20    1
    23    20    21    1
    24    21    22    1
    25    21    23    1
    26    23    24    1
    27     7     8   ar
    28     8     9   ar
    29     9    10   ar
    30    28    29   ar
    31    29    30   ar
    32    30    31    1
    33    31    32    1
    34    30    25   ar
    35    10     1   ar
    36     9     4   ar
    37    16    11    1
    38    24    18    1
    39    32    33    1
@<TRIPOS>MOLECULE
*****
 35 39 0 0 0
SMALL
GASTEIGER

@<TRIPOS>ATOM
      1 C         139.8746  139.1793  161.6945 C.ar    1  UNL1        0.0829
      2 C         141.1686  138.6131  161.1897 C.ar    1  UNL1        0.0193
      3 C         141.4244  138.5266  159.7142 C.ar    1  UNL1        0.0074
      4 C         140.3863  139.0063  158.7436 C.ar    1  UNL1        0.0676
      5 C         140.6421  138.9198  157.2681 C.ar    1  UNL1        0.1376
      6 N         139.6040  139.3995  156.2975 N.ar    1  UNL1       -0.1986
      7 C         138.3099  139.9657  156.8024 C.ar    1  UNL1        0.2227
      8 N         138.0541  140.0522  158.2779 N.ar    1  UNL1       -0.1944
      9 C         139.0923  139.5725  159.2485 C.ar    1  UNL1        0.1678
     10 N         138.8364  139.6590  160.7239 N.ar    1  UNL1       -0.2264
     11 N         141.9361  138.3536  156.7632 N.pl3   1  UNL1       -0.2897
     12 C         142.1340  136.8677  156.7085 C.3     1  UNL1        0.1242
     13 C         143.4281  136.3015  156.2036 C.3     1  UNL1        0.1636
     14 O         144.5242  137.2212  155.7535 O.3     1  UNL1       -0.3502
     15 C         144.3264  138.7071  155.8082 C.3     1  UNL1        0.1618
     16 C         143.0324  139.2733  156.3131 C.3     1  UNL1        0.1038
     17 C         142.8345  140.7592  156.3678 C.3     1  UNL1        0.0241
     18 N         137.2717  140.4454  155.8318 N.pl3   1  UNL1       -0.2753
     19 C         137.5907  140.5190  154.3679 C.3     1  UNL1        0.1109
     20 C         136.5525  140.9987  153.3973 C.3     1  UNL1        0.0939
     21 N         135.1954  141.4048  153.8906 N.3     1  UNL1       -0.2686
     22 C         134.1572  141.8845  152.9200 C.3     1  UNL1        0.0897
     23 C         134.8764  141.3312  155.3544 C.3     1  UNL1        0.0939
     24 C         135.9146  140.8515  156.3250 C.3     1  UNL1        0.1109
     25 C         139.1070  139.4388  166.1210 C.ar    1  UNL1        0.1370
     26 C         139.7841  140.5725  165.4095 C.ar    1  UNL1        0.0367
     27 C         140.0400  140.4860  163.9340 C.ar    1  UNL1        0.0046
     28 C         139.6187  139.2658  163.1700 C.ar    1  UNL1        0.0177
     29 C         138.9416  138.1321  163.8815 C.ar    1  UNL1        0.0027
     30 C         138.6857  138.2186  165.3570 C.ar    1  UNL1        0.0410
     31 C         138.0086  137.0849  166.0685 C.3     1  UNL1        0.1666
     32 O         137.0486  137.3672  167.1859 O.3     1  UNL1       -0.3771
     33 H         137.5270  137.7637  167.9307 H       1  UNL1        0.2109
     34 C         139.8618  140.1725  168.4962 C.3     1  UNL1        0.2525
     35 O         138.8511  139.5253  167.5965 O.3     1  UNL1       -0.4717
@<TRIPOS>BOND
     1    34    35    1
     2    35    25    1
     3    25    26   ar
     4    26    27   ar
     5    27    28   ar
     6    28     1    1
     7     1     2   ar
     8     2     3   ar
     9     3     4   ar
    10     4     5   ar
    11     5    11    1
    12    11    12    1
    13    12    13    1
    14    13    14    1
    15    14    15    1
    16    15    16    1
    17    16    17    1
    18     5     6   ar
    19     6     7   ar
    20     7    18    1
    21    18    19    1
    22    19    20    1
    23    20    21    1
    24    21    22    1
    25    21    23    1
    26    23    24    1
    27     7     8   ar
    28     8     9   ar
    29     9    10   ar
    30    28    29   ar
    31    29    30   ar
    32    30    31    1
    33    31    32    1
    34    30    25   ar
    35    10     1   ar
    36     9     4   ar
    37    16    11    1
    38    24    18    1
    39    32    33    1
@<TRIPOS>MOLECULE
*****
 35 39 0 0 0
SMALL
GASTEIGER

@<TRIPOS>ATOM
      1 C         141.1177  143.4433  160.1434 C.ar    1  UNL1        0.0829
      2 C         140.4448  142.2652  159.5036 C.ar    1  UNL1        0.0193
      3 C         139.6806  142.4412  158.2250 C.ar    1  UNL1        0.0074
      4 C         139.5892  143.7953  157.5862 C.ar    1  UNL1        0.0676
      5 C         138.8248  143.9712  156.3075 C.ar    1  UNL1        0.1376
      6 N         138.7334  145.3253  155.6686 N.ar    1  UNL1       -0.1986
      7 C         139.4064  146.5034  156.3084 C.ar    1  UNL1        0.2227
      8 N         140.1706  146.3274  157.5870 N.ar    1  UNL1       -0.1944
      9 C         140.2620  144.9734  158.2259 C.ar    1  UNL1        0.1678
     10 N         141.0263  144.7974  159.5045 N.ar    1  UNL1       -0.2264
     11 N         138.1520  142.7932  155.6677 N.pl3   1  UNL1       -0.2897
     12 C         136.7396  142.4458  156.0344 C.3     1  UNL1        0.1242
     13 C         136.0667  141.2676  155.3946 C.3     1  UNL1        0.1636
     14 O         136.8062  140.4369  154.3882 O.3     1  UNL1       -0.3502
     15 C         138.2186  140.7843  154.0215 C.3     1  UNL1        0.1618
     16 C         138.8915  141.9624  154.6612 C.3     1  UNL1        0.1038
     17 C         140.3039  142.3097  154.2945 C.3     1  UNL1        0.0241
     18 N         139.3150  147.8575  155.6696 N.pl3   1  UNL1       -0.2753
     19 C         138.5664  148.9615  156.3557 C.3     1  UNL1        0.1109
     20 C         138.4750  150.3156  155.7169 C.3     1  UNL1        0.0939
     21 N         139.1322  150.5656  154.3918 N.3     1  UNL1       -0.2686
     22 C         139.0408  151.9197  153.7530 C.3     1  UNL1        0.0897
     23 C         139.8808  149.4616  153.7057 C.3     1  UNL1        0.0939
     24 C         139.9721  148.1076  154.3446 C.3     1  UNL1        0.1109
     25 C         143.4106  142.9155  163.9793 C.ar    1  UNL1        0.1370
     26 C         142.2319  143.8418  163.9316 C.ar    1  UNL1        0.0367
     27 C         141.4675  144.0178  162.6529 C.ar    1  UNL1        0.0046
     28 C         141.8820  143.2674  161.4220 C.ar    1  UNL1        0.0177
     29 C         143.0608  142.3410  161.4698 C.ar    1  UNL1        0.0027
     30 C         143.8251  142.1650  162.7483 C.ar    1  UNL1        0.0410
     31 C         145.0039  141.2387  162.7961 C.3     1  UNL1        0.1666
     32 O         146.3487  141.7569  163.2119 O.3     1  UNL1       -0.3771
     33 H         146.6683  142.3924  162.5525 H       1  UNL1        0.2109
     34 C         143.4438  142.4474  166.5346 C.3     1  UNL1        0.2525
     35 O         144.1750  142.7395  165.2579 O.3     1  UNL1       -0.4717
@<TRIPOS>BOND
     1    34    35    1
     2    35    25    1
     3    25    26   ar
     4    26    27   ar
     5    27    28   ar
     6    28     1    1
     7     1     2   ar
     8     2     3   ar
     9     3     4   ar
    10     4     5   ar
    11     5    11    1
    12    11    12    1
    13    12    13    1
    14    13    14    1
    15    14    15    1
    16    15    16    1
    17    16    17    1
    18     5     6   ar
    19     6     7   ar
    20     7    18    1
    21    18    19    1
    22    19    20    1
    23    20    21    1
    24    21    22    1
    25    21    23    1
    26    23    24    1
    27     7     8   ar
    28     8     9   ar
    29     9    10   ar
    30    28    29   ar
    31    29    30   ar
    32    30    31    1
    33    31    32    1
    34    30    25   ar
    35    10     1   ar
    36     9     4   ar
    37    16    11    1
    38    24    18    1
    39    32    33    1
@<TRIPOS>MOLECULE
*****
 35 39 0 0 0
SMALL
GASTEIGER

@<TRIPOS>ATOM
      1 C         141.7804  141.0674  160.2329 C.ar    1  UNL1        0.0829
      2 C         142.5629  141.9724  159.3281 C.ar    1  UNL1        0.0193
      3 C         143.2098  141.4206  158.0924 C.ar    1  UNL1        0.0074
      4 C         143.0741  139.9639  157.7614 C.ar    1  UNL1        0.0676
      5 C         143.7210  139.4121  156.5256 C.ar    1  UNL1        0.1376
      6 N         143.5854  137.9554  156.1947 N.ar    1  UNL1       -0.1986
      7 C         142.8028  137.0504  157.0995 C.ar    1  UNL1        0.2227
      8 N         142.1559  137.6022  158.3352 N.ar    1  UNL1       -0.1944
      9 C         142.2916  139.0589  158.6662 C.ar    1  UNL1        0.1678
     10 N         141.6447  139.6107  159.9019 N.ar    1  UNL1       -0.2264
     11 N         144.5036  140.3171  155.6209 N.pl3   1  UNL1       -0.2897
     12 C         145.9532  140.5843  155.8986 C.3     1  UNL1        0.1242
     13 C         146.7358  141.4893  154.9937 C.3     1  UNL1        0.1636
     14 O         146.0687  142.1270  153.8113 O.3     1  UNL1       -0.3502
     15 C         144.6190  141.8598  153.5335 C.3     1  UNL1        0.1618
     16 C         143.8365  140.9548  154.4383 C.3     1  UNL1        0.1038
     17 C         142.3869  140.6875  154.1606 C.3     1  UNL1        0.0241
     18 N         142.6671  135.5937  156.7686 N.pl3   1  UNL1       -0.2753
     19 C         141.7307  135.1555  155.6817 C.3     1  UNL1        0.1109
     20 C         141.5951  133.6988  155.3507 C.3     1  UNL1        0.0939
     21 N         142.3958  132.6802  156.1067 N.3     1  UNL1       -0.2686
     22 C         142.2602  131.2235  155.7757 C.3     1  UNL1        0.0897
     23 C         143.3321  133.1184  157.1935 C.3     1  UNL1        0.0939
     24 C         143.4678  134.5751  157.5245 C.3     1  UNL1        0.1109
     25 C         139.8396  142.7227  163.9401 C.ar    1  UNL1        0.1370
     26 C         141.3302  142.5667  163.8798 C.ar    1  UNL1        0.0367
     27 C         141.9771  142.0149  162.6440 C.ar    1  UNL1        0.0046
     28 C         141.1334  141.6192  161.4686 C.ar    1  UNL1        0.0177
     29 C         139.6428  141.7752  161.5290 C.ar    1  UNL1        0.0027
     30 C         138.9958  142.3270  162.7647 C.ar    1  UNL1        0.0410
     31 C         137.5052  142.4830  162.8250 C.3     1  UNL1        0.1666
     32 O         136.6460  141.3252  163.2387 O.3     1  UNL1       -0.3771
     33 H         136.7088  140.6220  162.5734 H       1  UNL1        0.2109
     34 C         138.8524  144.7331  165.2568 C.3     1  UNL1        0.2525
     35 O         139.1926  143.2744  165.1758 O.3     1  UNL1       -0.4717
@<TRIPOS>BOND
     1    34    35    1
     2    35    25    1
     3    25    26   ar
     4    26    27   ar
     5    27    28   ar
     6    28     1    1
     7     1     2   ar
     8     2     3   ar
     9     3     4   ar
    10     4     5   ar
    11     5    11    1
    12    11    12    1
    13    12    13    1
    14    13    14    1
    15    14    15    1
    16    15    16    1
    17    16    17    1
    18     5     6   ar
    19     6     7   ar
    20     7    18    1
    21    18    19    1
    22    19    20    1
    23    20    21    1
    24    21    22    1
    25    21    23    1
    26    23    24    1
    27     7     8   ar
    28     8     9   ar
    29     9    10   ar
    30    28    29   ar
    31    29    30   ar
    32    30    31    1
    33    31    32    1
    34    30    25   ar
    35    10     1   ar
    36     9     4   ar
    37    16    11    1
    38    24    18    1
    39    32    33    1
@<TRIPOS>MOLECULE
*****
 35 39 0 0 0
SMALL
GASTEIGER

@<TRIPOS>ATOM
      1 C         142.2225  140.5764  163.2063 C.ar    1  UNL1        0.0829
      2 C         142.0579  141.9793  162.7015 C.ar    1  UNL1        0.0193
      3 C         141.8381  142.2291  161.2389 C.ar    1  UNL1        0.0074
      4 C         141.7828  141.0761  160.2811 C.ar    1  UNL1        0.0676
      5 C         141.5629  141.3259  158.8185 C.ar    1  UNL1        0.1376
      6 N         141.5077  140.1729  157.8606 N.ar    1  UNL1       -0.1986
      7 C         141.6723  138.7700  158.3655 C.ar    1  UNL1        0.2227
      8 N         141.8921  138.5202  159.8281 N.ar    1  UNL1       -0.1944
      9 C         141.9474  139.6732  160.7859 C.ar    1  UNL1        0.1678
     10 N         142.1672  139.4234  162.2485 N.ar    1  UNL1       -0.2264
     11 N         141.3984  142.7288  158.3137 N.pl3   1  UNL1       -0.2897
     12 C         140.0263  143.3167  158.1661 C.3     1  UNL1        0.1242
     13 C         139.8617  144.7196  157.6613 C.3     1  UNL1        0.1636
     14 O         141.0692  145.5346  157.3041 O.3     1  UNL1       -0.3502
     15 C         142.4413  144.9468  157.4517 C.3     1  UNL1        0.1618
     16 C         142.6059  143.5439  157.9565 C.3     1  UNL1        0.1038
     17 C         143.9780  142.9561  158.1041 C.3     1  UNL1        0.0241
     18 N         141.6170  137.6169  157.4077 N.pl3   1  UNL1       -0.2753
     19 C         140.4493  137.4697  156.4777 C.3     1  UNL1        0.1109
     20 C         140.3940  136.3167  155.5198 C.3     1  UNL1        0.0939
     21 N         141.5065  135.3108  155.4920 N.3     1  UNL1       -0.2686
     22 C         141.4512  134.1578  154.5342 C.3     1  UNL1        0.0897
     23 C         142.6741  135.4580  156.4220 C.3     1  UNL1        0.0939
     24 C         142.7294  136.6111  157.3798 C.3     1  UNL1        0.1109
     25 C         142.8821  139.8269  167.5942 C.ar    1  UNL1        0.1370
     26 C         142.9256  138.6843  166.6233 C.ar    1  UNL1        0.0367
     27 C         142.7057  138.9342  165.1607 C.ar    1  UNL1        0.0046
     28 C         142.4424  140.3266  164.6690 C.ar    1  UNL1        0.0177
     29 C         142.3989  141.4692  165.6398 C.ar    1  UNL1        0.0027
     30 C         142.6188  141.2193  167.1024 C.ar    1  UNL1        0.0410
     31 C         142.5753  142.3619  168.0733 C.3     1  UNL1        0.1666
     32 O         143.7093  142.5753  169.0317 O.3     1  UNL1       -0.3771
     33 H         143.7493  141.8337  169.6555 H       1  UNL1        0.2109
     34 C         141.9314  139.3131  169.9568 C.3     1  UNL1        0.2525
     35 O         143.1019  139.5771  169.0568 O.3     1  UNL1       -0.4717
@<TRIPOS>BOND
     1    34    35    1
     2    35    25    1
     3    25    26   ar
     4    26    27   ar
     5    27    28   ar
     6    28     1    1
     7     1     2   ar
     8     2     3   ar
     9     3     4   ar
    10     4     5   ar
    11     5    11    1
    12    11    12    1
    13    12    13    1
    14    13    14    1
    15    14    15    1
    16    15    16    1
    17    16    17    1
    18     5     6   ar
    19     6     7   ar
    20     7    18    1
    21    18    19    1
    22    19    20    1
    23    20    21    1
    24    21    22    1
    25    21    23    1
    26    23    24    1
    27     7     8   ar
    28     8     9   ar
    29     9    10   ar
    30    28    29   ar
    31    29    30   ar
    32    30    31    1
    33    31    32    1
    34    30    25   ar
    35    10     1   ar
    36     9     4   ar
    37    16    11    1
    38    24    18    1
    39    32    33    1
@<TRIPOS>MOLECULE
*****
 35 39 0 0 0
SMALL
GASTEIGER

@<TRIPOS>ATOM
      1 C         139.9360  138.9978  161.0879 C.ar    1  UNL1        0.0829
      2 C         141.2929  138.5444  160.6372 C.ar    1  UNL1        0.0193
      3 C         141.6489  138.5768  159.1805 C.ar    1  UNL1        0.0074
      4 C         140.6480  139.0627  158.1744 C.ar    1  UNL1        0.0676
      5 C         141.0040  139.0952  156.7176 C.ar    1  UNL1        0.1376
      6 N         140.0031  139.5810  155.7116 N.ar    1  UNL1       -0.1986
      7 C         138.6461  140.0344  156.1623 C.ar    1  UNL1        0.2227
      8 N         138.2901  140.0020  157.6191 N.ar    1  UNL1       -0.1944
      9 C         139.2910  139.5161  158.6251 C.ar    1  UNL1        0.1678
     10 N         138.9351  139.4836  160.0819 N.ar    1  UNL1       -0.2264
     11 N         142.3609  138.6418  156.2669 N.pl3   1  UNL1       -0.2897
     12 C         143.4600  139.6437  156.0719 C.3     1  UNL1        0.1242
     13 C         144.8170  139.1903  155.6212 C.3     1  UNL1        0.1636
     14 O         145.0748  137.7349  155.3654 O.3     1  UNL1       -0.3502
     15 C         143.9757  136.7330  155.5604 C.3     1  UNL1        0.1618
     16 C         142.6188  137.1863  156.0111 C.3     1  UNL1        0.1038
     17 C         141.5196  136.1844  156.2061 C.3     1  UNL1        0.0241
     18 N         137.6452  140.5203  155.1563 N.pl3   1  UNL1       -0.2753
     19 C         137.9986  140.5457  153.6987 C.3     1  UNL1        0.1109
     20 C         136.9977  141.0316  152.6927 C.3     1  UNL1        0.0939
     21 N         135.6434  141.4920  153.1442 N.3     1  UNL1       -0.2686
     22 C         134.6425  141.9779  152.1382 C.3     1  UNL1        0.0897
     23 C         135.2900  141.4665  154.6018 C.3     1  UNL1        0.0939
     24 C         136.2909  140.9807  155.6078 C.3     1  UNL1        0.1109
     25 C         138.8678  138.9005  165.4583 C.ar    1  UNL1        0.1370
     26 C         138.7895  137.6464  164.6390 C.ar    1  UNL1        0.0367
     27 C         139.1455  137.6789  163.1822 C.ar    1  UNL1        0.0046
     28 C         139.5799  138.9653  162.5447 C.ar    1  UNL1        0.0177
     29 C         139.6583  140.2193  163.3641 C.ar    1  UNL1        0.0027
     30 C         139.3022  140.1869  164.8208 C.ar    1  UNL1        0.0410
     31 C         139.3806  141.4410  165.6401 C.3     1  UNL1        0.1666
     32 O         139.8486  141.3787  167.0638 O.3     1  UNL1       -0.3771
     33 H         139.2078  140.8787  167.5932 H       1  UNL1        0.2109
     34 C         137.2960  138.1186  167.3734 C.3     1  UNL1        0.2525
     35 O         138.5118  138.8681  166.9150 O.3     1  UNL1       -0.4717
@<TRIPOS>BOND
     1    34    35    1
     2    35    25    1
     3    25    26   ar
     4    26    27   ar
     5    27    28   ar
     6    28     1    1
     7     1     2   ar
     8     2     3   ar
     9     3     4   ar
    10     4     5   ar
    11     5    11    1
    12    11    12    1
    13    12    13    1
    14    13    14    1
    15    14    15    1
    16    15    16    1
    17    16    17    1
    18     5     6   ar
    19     6     7   ar
    20     7    18    1
    21    18    19    1
    22    19    20    1
    23    20    21    1
    24    21    22    1
    25    21    23    1
    26    23    24    1
    27     7     8   ar
    28     8     9   ar
    29     9    10   ar
    30    28    29   ar
    31    29    30   ar
    32    30    31    1
    33    31    32    1
    34    30    25   ar
    35    10     1   ar
    36     9     4   ar
    37    16    11    1
    38    24    18    1
    39    32    33    1
