@<TRIPOS>MOLECULE
*****
 28 31 0 0 0
SMALL
GASTEIGER

@<TRIPOS>ATOM
      1 C         140.0496  140.0729  166.6296 C.3     1  UNL1        0.0247
      2 C         138.8387  139.9409  165.7544 C.3     1  UNL1        0.0217
      3 C         138.8840  139.0631  164.5388 C.3     1  UNL1        0.0724
      4 N         140.1402  138.3174  164.1986 N.3     1  UNL1       -0.2727
      5 C         141.3512  138.4495  165.0739 C.3     1  UNL1        0.0724
      6 C         141.3059  139.3272  166.2894 C.3     1  UNL1        0.0201
      7 C         142.5169  139.4593  167.1647 C.3     1  UNL1        0.0018
      8 C         140.9465  142.9301  166.4508 C.3     1  UNL1        0.0307
      9 C         140.4528  142.3793  167.7558 C.ar    1  UNL1       -0.0258
     10 C         140.4076  143.2570  168.9713 C.ar    1  UNL1       -0.0046
     11 C         139.9139  142.7062  170.2762 C.ar    1  UNL1       -0.0003
     12 C         139.4655  141.2776  170.3656 C.ar    1  UNL1       -0.0003
     13 C         139.5107  140.3998  169.1501 C.ar    1  UNL1       -0.0046
     14 C         140.0044  140.9507  167.8452 C.ar    1  UNL1       -0.0264
     15 C         140.1855  137.4397  162.9831 C.3     1  UNL1        0.0721
     16 C         140.7490  137.9678  161.6971 C.3     1  UNL1        0.0191
     17 C         139.7420  138.3395  160.6494 C.3     1  UNL1        0.0062
     18 C         139.9823  138.8896  159.2747 C.3     1  UNL1        0.0277
     19 C         141.2889  139.2039  158.6083 C.ar    1  UNL1       -0.0063
     20 C         141.0824  139.7404  157.2229 C.ar    1  UNL1       -0.0014
     21 C         142.2649  140.1186  156.3811 C.ar    1  UNL1        0.0203
     22 C         143.6539  139.9604  156.9248 C.ar    1  UNL1        0.0985
     23 N         143.8604  139.4239  158.3102 N.ar    1  UNL1       -0.2461
     24 C         142.6779  139.0456  159.1520 C.ar    1  UNL1        0.0817
     25 C         143.1034  138.5341  160.4964 C.3     1  UNL1        0.1498
     26 O         144.5830  138.4973  160.7402 O.3     1  UNL1       -0.3785
     27 C         142.2450  138.0544  161.6291 C.3     1  UNL1        0.0368
     28 H         145.0484  138.8248  159.9547 H       1  UNL1        0.2108
@<TRIPOS>BOND
     1     8     9    1
     2     9    10   ar
     3    10    11   ar
     4    11    12   ar
     5    12    13   ar
     6    13    14   ar
     7     1    14    1
     8     1     2    1
     9     2     3    1
    10     3     4    1
    11     4    15    1
    12    16    15    1
    13    16    17    1
    14    17    18    1
    15    18    19    1
    16    19    20   ar
    17    20    21   ar
    18    21    22   ar
    19    22    23   ar
    20    23    24   ar
    21    24    25    1
    22    25    26    1
    23    25    27    1
    24     4     5    1
    25     5     6    1
    26     6     7    1
    27    14     9   ar
    28     6     1    1
    29    27    16    1
    30    24    19   ar
    31    26    28    1
@<TRIPOS>MOLECULE
*****
 28 31 0 0 0
SMALL
GASTEIGER

@<TRIPOS>ATOM
      1 C         140.0045  141.4158  166.7421 C.3     1  UNL1        0.0247
      2 C         140.2913  142.8731  166.5329 C.3     1  UNL1        0.0217
      3 C         139.6000  143.6233  165.4332 C.3     1  UNL1        0.0724
      4 N         138.6218  142.9161  164.5427 N.3     1  UNL1       -0.2727
      5 C         138.3350  141.4586  164.7519 C.3     1  UNL1        0.0724
      6 C         139.0263  140.7085  165.8516 C.3     1  UNL1        0.0201
      7 C         138.7395  139.2511  166.0609 C.3     1  UNL1        0.0018
      8 C         142.6165  140.0403  166.2077 C.3     1  UNL1        0.0307
      9 C         142.0019  139.9779  167.5746 C.ar    1  UNL1       -0.0258
     10 C         142.6932  139.2277  168.6743 C.ar    1  UNL1       -0.0046
     11 C         142.0786  139.1653  170.0411 C.ar    1  UNL1       -0.0003
     12 C         140.7726  139.8530  170.3083 C.ar    1  UNL1       -0.0003
     13 C         140.0812  140.6031  169.2087 C.ar    1  UNL1       -0.0046
     14 C         140.6959  140.6656  167.8418 C.ar    1  UNL1       -0.0264
     15 C         137.9304  143.6662  163.4430 C.3     1  UNL1        0.0721
     16 C         138.6041  143.8383  162.1139 C.3     1  UNL1        0.0191
     17 C         139.4707  145.0549  161.9762 C.3     1  UNL1        0.0062
     18 C         140.2692  145.5046  160.7888 C.3     1  UNL1        0.0277
     19 C         140.3985  144.8490  159.4458 C.ar    1  UNL1       -0.0063
     20 C         141.3006  145.6318  158.5384 C.ar    1  UNL1       -0.0014
     21 C         141.5652  145.1471  157.1437 C.ar    1  UNL1        0.0203
     22 C         140.9278  143.8797  156.6566 C.ar    1  UNL1        0.0985
     23 N         140.0257  143.0969  157.5640 N.ar    1  UNL1       -0.2461
     24 C         139.7610  143.5816  158.9586 C.ar    1  UNL1        0.0817
     25 C         138.8369  142.6569  159.6941 C.3     1  UNL1        0.1498
     26 O         138.3654  141.4595  158.9233 O.3     1  UNL1       -0.3785
     27 C         138.3220  142.7710  161.0983 C.3     1  UNL1        0.0368
     28 H         138.7506  141.4757  158.0333 H       1  UNL1        0.2108
@<TRIPOS>BOND
     1     8     9    1
     2     9    10   ar
     3    10    11   ar
     4    11    12   ar
     5    12    13   ar
     6    13    14   ar
     7     1    14    1
     8     1     2    1
     9     2     3    1
    10     3     4    1
    11     4    15    1
    12    16    15    1
    13    16    17    1
    14    17    18    1
    15    18    19    1
    16    19    20   ar
    17    20    21   ar
    18    21    22   ar
    19    22    23   ar
    20    23    24   ar
    21    24    25    1
    22    25    26    1
    23    25    27    1
    24     4     5    1
    25     5     6    1
    26     6     7    1
    27    14     9   ar
    28     6     1    1
    29    27    16    1
    30    24    19   ar
    31    26    28    1
@<TRIPOS>MOLECULE
*****
 28 31 0 0 0
SMALL
GASTEIGER

@<TRIPOS>ATOM
      1 C         140.1578  142.3880  166.6708 C.3     1  UNL1        0.0247
      2 C         139.8815  143.5575  165.7731 C.3     1  UNL1        0.0217
      3 C         138.9534  143.4035  164.6048 C.3     1  UNL1        0.0724
      4 N         138.3015  142.0799  164.3343 N.3     1  UNL1       -0.2727
      5 C         138.5779  140.9103  165.2320 C.3     1  UNL1        0.0724
      6 C         139.5060  141.0644  166.4002 C.3     1  UNL1        0.0201
      7 C         139.7824  139.8949  167.2980 C.3     1  UNL1        0.0018
      8 C         143.0562  141.6666  166.3891 C.3     1  UNL1        0.0307
      9 C         142.5352  142.1814  167.6982 C.ar    1  UNL1       -0.0258
     10 C         143.4634  142.3354  168.8664 C.ar    1  UNL1       -0.0046
     11 C         142.9424  142.8501  170.1755 C.ar    1  UNL1       -0.0003
     12 C         141.4932  143.2108  170.3163 C.ar    1  UNL1       -0.0003
     13 C         140.5650  143.0568  169.1481 C.ar    1  UNL1       -0.0046
     14 C         141.0860  142.5421  167.8391 C.ar    1  UNL1       -0.0264
     15 C         137.3734  141.9258  163.1660 C.3     1  UNL1        0.0721
     16 C         137.8927  141.4034  161.8593 C.3     1  UNL1        0.0191
     17 C         138.1250  142.4327  160.7932 C.3     1  UNL1        0.0062
     18 C         138.6331  142.2336  159.3959 C.3     1  UNL1        0.0277
     19 C         139.0343  140.9561  158.7197 C.ar    1  UNL1       -0.0063
     20 C         139.4879  141.2007  157.3111 C.ar    1  UNL1       -0.0014
     21 C         139.9337  140.0515  156.4565 C.ar    1  UNL1        0.0203
     22 C         139.9260  138.6576  157.0106 C.ar    1  UNL1        0.0985
     23 N         139.4723  138.4130  158.4193 N.ar    1  UNL1       -0.2461
     24 C         139.0265  139.5623  159.2738 C.ar    1  UNL1        0.0817
     25 C         138.6156  139.1016  160.6410 C.3     1  UNL1        0.1498
     26 O         138.7236  137.6264  160.8904 O.3     1  UNL1       -0.3785
     27 C         138.1110  139.9209  161.7916 C.3     1  UNL1        0.0368
     28 H         139.0566  137.1871  160.0923 H       1  UNL1        0.2108
@<TRIPOS>BOND
     1     8     9    1
     2     9    10   ar
     3    10    11   ar
     4    11    12   ar
     5    12    13   ar
     6    13    14   ar
     7     1    14    1
     8     1     2    1
     9     2     3    1
    10     3     4    1
    11     4    15    1
    12    16    15    1
    13    16    17    1
    14    17    18    1
    15    18    19    1
    16    19    20   ar
    17    20    21   ar
    18    21    22   ar
    19    22    23   ar
    20    23    24   ar
    21    24    25    1
    22    25    26    1
    23    25    27    1
    24     4     5    1
    25     5     6    1
    26     6     7    1
    27    14     9   ar
    28     6     1    1
    29    27    16    1
    30    24    19   ar
    31    26    28    1
@<TRIPOS>MOLECULE
*****
 28 31 0 0 0
SMALL
GASTEIGER

@<TRIPOS>ATOM
      1 C         140.2898  139.9036  167.2430 C.3     1  UNL1        0.0247
      2 C         138.9481  139.4558  166.7436 C.3     1  UNL1        0.0217
      3 C         138.8521  138.6036  165.5129 C.3     1  UNL1        0.0724
      4 N         140.0978  138.1992  164.7816 N.3     1  UNL1       -0.2727
      5 C         141.4395  138.6470  165.2811 C.3     1  UNL1        0.0724
      6 C         141.5355  139.4992  166.5118 C.3     1  UNL1        0.0201
      7 C         142.8772  139.9470  167.0112 C.3     1  UNL1        0.0018
      8 C         140.3366  142.8931  166.9975 C.3     1  UNL1        0.0307
      9 C         140.4092  142.2506  168.3510 C.ar    1  UNL1       -0.0258
     10 C         140.5052  143.1027  169.5816 C.ar    1  UNL1       -0.0046
     11 C         140.5779  142.4601  170.9350 C.ar    1  UNL1       -0.0003
     12 C         140.5545  140.9654  171.0578 C.ar    1  UNL1       -0.0003
     13 C         140.4584  140.1132  169.8272 C.ar    1  UNL1       -0.0046
     14 C         140.3858  140.7558  168.4738 C.ar    1  UNL1       -0.0264
     15 C         140.0018  137.3471  163.5510 C.3     1  UNL1        0.0721
     16 C         139.8532  137.9894  162.2036 C.3     1  UNL1        0.0191
     17 C         141.0968  138.0407  161.3664 C.3     1  UNL1        0.0062
     18 C         141.2749  138.6108  159.9905 C.3     1  UNL1        0.0277
     19 C         140.2536  139.2704  159.1119 C.ar    1  UNL1       -0.0063
     20 C         140.8508  139.7005  157.8049 C.ar    1  UNL1       -0.0014
     21 C         139.9962  140.3830  156.7783 C.ar    1  UNL1        0.0203
     22 C         138.5444  140.6353  157.0587 C.ar    1  UNL1        0.0985
     23 N         137.9472  140.2053  158.3657 N.ar    1  UNL1       -0.2461
     24 C         138.8018  139.5228  159.3923 C.ar    1  UNL1        0.0817
     25 C         138.0128  139.1779  160.6206 C.3     1  UNL1        0.1498
     26 O         136.5644  139.5669  160.5942 O.3     1  UNL1       -0.3785
     27 C         138.4807  138.4955  161.8718 C.3     1  UNL1        0.0368
     28 H         136.3608  139.9983  159.7496 H       1  UNL1        0.2108
@<TRIPOS>BOND
     1     8     9    1
     2     9    10   ar
     3    10    11   ar
     4    11    12   ar
     5    12    13   ar
     6    13    14   ar
     7     1    14    1
     8     1     2    1
     9     2     3    1
    10     3     4    1
    11     4    15    1
    12    16    15    1
    13    16    17    1
    14    17    18    1
    15    18    19    1
    16    19    20   ar
    17    20    21   ar
    18    21    22   ar
    19    22    23   ar
    20    23    24   ar
    21    24    25    1
    22    25    26    1
    23    25    27    1
    24     4     5    1
    25     5     6    1
    26     6     7    1
    27    14     9   ar
    28     6     1    1
    29    27    16    1
    30    24    19   ar
    31    26    28    1
@<TRIPOS>MOLECULE
*****
 28 31 0 0 0
SMALL
GASTEIGER

@<TRIPOS>ATOM
      1 C         141.9794  139.5027  166.7030 C.3     1  UNL1        0.0247
      2 C         142.9720  138.7702  165.8498 C.3     1  UNL1        0.0217
      3 C         142.5092  138.0229  164.6342 C.3     1  UNL1        0.0724
      4 N         141.0537  138.0083  164.2719 N.3     1  UNL1       -0.2727
      5 C         140.0610  138.7408  165.1252 C.3     1  UNL1        0.0724
      6 C         140.5238  139.4880  166.3407 C.3     1  UNL1        0.0201
      7 C         139.5311  140.2206  167.1939 C.3     1  UNL1        0.0018
      8 C         142.8517  142.3631  166.4635 C.3     1  UNL1        0.0307
      9 C         142.8783  141.6801  167.7988 C.ar    1  UNL1       -0.0258
     10 C         143.3411  142.4274  169.0143 C.ar    1  UNL1       -0.0046
     11 C         143.3677  141.7444  170.3495 C.ar    1  UNL1       -0.0003
     12 C         142.9316  140.3142  170.4692 C.ar    1  UNL1       -0.0003
     13 C         142.4688  139.5670  169.2537 C.ar    1  UNL1       -0.0046
     14 C         142.4422  140.2499  167.9185 C.ar    1  UNL1       -0.0264
     15 C         140.5909  137.2611  163.0564 C.3     1  UNL1        0.0721
     16 C         140.2222  138.0106  161.8105 C.3     1  UNL1        0.0191
     17 C         141.3402  138.2478  160.8389 C.3     1  UNL1        0.0062
     18 C         141.2963  138.9568  159.5178 C.3     1  UNL1        0.0277
     19 C         140.1238  139.6037  158.8419 C.ar    1  UNL1       -0.0063
     20 C         140.5137  140.2040  157.5237 C.ar    1  UNL1       -0.0014
     21 C         139.4853  140.9019  156.6840 C.ar    1  UNL1        0.0203
     22 C         138.0670  140.9995  157.1624 C.ar    1  UNL1        0.0985
     23 N         137.6771  140.3992  158.4805 N.ar    1  UNL1       -0.2461
     24 C         138.7055  139.7013  159.3203 C.ar    1  UNL1        0.0817
     25 C         138.1095  139.1762  160.5927 C.3     1  UNL1        0.1498
     26 O         136.6447  139.4381  160.7818 O.3     1  UNL1       -0.3785
     27 C         138.7844  138.4237  161.7010 C.3     1  UNL1        0.0368
     28 H         136.3022  139.9269  160.0171 H       1  UNL1        0.2108
@<TRIPOS>BOND
     1     8     9    1
     2     9    10   ar
     3    10    11   ar
     4    11    12   ar
     5    12    13   ar
     6    13    14   ar
     7     1    14    1
     8     1     2    1
     9     2     3    1
    10     3     4    1
    11     4    15    1
    12    16    15    1
    13    16    17    1
    14    17    18    1
    15    18    19    1
    16    19    20   ar
    17    20    21   ar
    18    21    22   ar
    19    22    23   ar
    20    23    24   ar
    21    24    25    1
    22    25    26    1
    23    25    27    1
    24     4     5    1
    25     5     6    1
    26     6     7    1
    27    14     9   ar
    28     6     1    1
    29    27    16    1
    30    24    19   ar
    31    26    28    1
@<TRIPOS>MOLECULE
*****
 28 31 0 0 0
SMALL
GASTEIGER

@<TRIPOS>ATOM
      1 C         139.8302  141.2019  166.6361 C.3     1  UNL1        0.0247
      2 C         140.1040  142.6372  166.2975 C.3     1  UNL1        0.0217
      3 C         139.4810  143.2526  165.0796 C.3     1  UNL1        0.0724
      4 N         138.5843  142.4324  164.2002 N.3     1  UNL1       -0.2727
      5 C         138.3105  140.9970  164.5389 C.3     1  UNL1        0.0724
      6 C         138.9334  140.3817  165.7568 C.3     1  UNL1        0.0201
      7 C         138.6597  138.9463  166.0954 C.3     1  UNL1        0.0018
      8 C         142.5249  139.8970  166.4460 C.3     1  UNL1        0.0307
      9 C         141.8005  139.9341  167.7590 C.ar    1  UNL1       -0.0258
     10 C         142.4235  139.3188  168.9769 C.ar    1  UNL1       -0.0046
     11 C         141.6991  139.3559  170.2898 C.ar    1  UNL1       -0.0003
     12 C         140.3518  140.0083  170.3849 C.ar    1  UNL1       -0.0003
     13 C         139.7288  140.6237  169.1670 C.ar    1  UNL1       -0.0046
     14 C         140.4532  140.5865  167.8541 C.ar    1  UNL1       -0.0264
     15 C         137.9613  143.0477  162.9823 C.3     1  UNL1        0.0721
     16 C         138.7715  143.2212  161.7319 C.3     1  UNL1        0.0191
     17 C         138.2396  142.5311  160.5108 C.3     1  UNL1        0.0062
     18 C         138.8113  142.5113  159.1242 C.3     1  UNL1        0.0277
     19 C         140.0560  143.1766  158.6161 C.ar    1  UNL1       -0.0063
     20 C         140.2673  142.9022  157.1566 C.ar    1  UNL1       -0.0014
     21 C         141.4591  143.4772  156.4503 C.ar    1  UNL1        0.0203
     22 C         142.4395  144.3266  157.2034 C.ar    1  UNL1        0.0985
     23 N         142.2282  144.6011  158.6628 N.ar    1  UNL1       -0.2461
     24 C         141.0364  144.0261  159.3692 C.ar    1  UNL1        0.0817
     25 C         141.0143  144.4200  160.8164 C.3     1  UNL1        0.1498
     26 O         142.1504  145.2868  161.2723 O.3     1  UNL1       -0.3785
     27 C         140.0063  144.0619  161.8679 C.3     1  UNL1        0.0368
     28 H         142.7438  145.4615  160.5252 H       1  UNL1        0.2108
@<TRIPOS>BOND
     1     8     9    1
     2     9    10   ar
     3    10    11   ar
     4    11    12   ar
     5    12    13   ar
     6    13    14   ar
     7     1    14    1
     8     1     2    1
     9     2     3    1
    10     3     4    1
    11     4    15    1
    12    16    15    1
    13    16    17    1
    14    17    18    1
    15    18    19    1
    16    19    20   ar
    17    20    21   ar
    18    21    22   ar
    19    22    23   ar
    20    23    24   ar
    21    24    25    1
    22    25    26    1
    23    25    27    1
    24     4     5    1
    25     5     6    1
    26     6     7    1
    27    14     9   ar
    28     6     1    1
    29    27    16    1
    30    24    19   ar
    31    26    28    1
@<TRIPOS>MOLECULE
*****
 28 31 0 0 0
SMALL
GASTEIGER

@<TRIPOS>ATOM
      1 C         140.2676  139.8849  167.2651 C.3     1  UNL1        0.0247
      2 C         138.8194  139.5563  167.0538 C.3     1  UNL1        0.0217
      3 C         138.3940  138.7899  165.8365 C.3     1  UNL1        0.0724
      4 N         139.4169  138.3521  164.8305 N.3     1  UNL1       -0.2727
      5 C         140.8652  138.6808  165.0418 C.3     1  UNL1        0.0724
      6 C         141.2905  139.4471  166.2590 C.3     1  UNL1        0.0201
      7 C         142.7388  139.7758  166.4703 C.3     1  UNL1        0.0018
      8 C         140.4545  142.8773  167.1641 C.3     1  UNL1        0.0307
      9 C         140.7865  142.1475  168.4319 C.ar    1  UNL1       -0.0258
     10 C         141.2118  142.9139  169.6491 C.ar    1  UNL1       -0.0046
     11 C         141.5438  142.1840  170.9168 C.ar    1  UNL1       -0.0003
     12 C         141.4504  140.6878  170.9673 C.ar    1  UNL1       -0.0003
     13 C         141.0250  139.9214  169.7501 C.ar    1  UNL1       -0.0046
     14 C         140.6930  140.6513  168.4824 C.ar    1  UNL1       -0.0264
     15 C         138.9916  137.5858  163.6132 C.3     1  UNL1        0.0721
     16 C         139.0541  138.2314  162.2607 C.3     1  UNL1        0.0191
     17 C         137.8308  138.9943  161.8466 C.3     1  UNL1        0.0062
     18 C         137.5830  139.7429  160.5706 C.3     1  UNL1        0.0277
     19 C         138.4972  139.9136  159.3936 C.ar    1  UNL1       -0.0063
     20 C         137.8574  140.7406  158.3182 C.ar    1  UNL1       -0.0014
     21 C         138.6055  141.0318  157.0511 C.ar    1  UNL1        0.0203
     22 C         139.9934  140.4959  156.8595 C.ar    1  UNL1        0.0985
     23 N         140.6331  139.6689  157.9349 N.ar    1  UNL1       -0.2461
     24 C         139.8850  139.3778  159.2020 C.ar    1  UNL1        0.0817
     25 C         140.7014  138.5389  160.1400 C.3     1  UNL1        0.1498
     26 O         142.0684  138.1601  159.6522 O.3     1  UNL1       -0.3785
     27 C         140.3317  138.0287  161.5013 C.3     1  UNL1        0.0368
     28 H         142.2119  138.5349  158.7692 H       1  UNL1        0.2108
@<TRIPOS>BOND
     1     8     9    1
     2     9    10   ar
     3    10    11   ar
     4    11    12   ar
     5    12    13   ar
     6    13    14   ar
     7     1    14    1
     8     1     2    1
     9     2     3    1
    10     3     4    1
    11     4    15    1
    12    16    15    1
    13    16    17    1
    14    17    18    1
    15    18    19    1
    16    19    20   ar
    17    20    21   ar
    18    21    22   ar
    19    22    23   ar
    20    23    24   ar
    21    24    25    1
    22    25    26    1
    23    25    27    1
    24     4     5    1
    25     5     6    1
    26     6     7    1
    27    14     9   ar
    28     6     1    1
    29    27    16    1
    30    24    19   ar
    31    26    28    1
@<TRIPOS>MOLECULE
*****
 28 31 0 0 0
SMALL
GASTEIGER

@<TRIPOS>ATOM
      1 C         141.5889  142.3910  166.6385 C.3     1  UNL1        0.0247
      2 C         143.0501  142.0601  166.5647 C.3     1  UNL1        0.0217
      3 C         143.8308  142.3839  165.3255 C.3     1  UNL1        0.0724
      4 N         143.1503  143.0387  164.1600 N.3     1  UNL1       -0.2727
      5 C         141.6891  143.3697  164.2339 C.3     1  UNL1        0.0724
      6 C         140.9084  143.0458  165.4731 C.3     1  UNL1        0.0201
      7 C         139.4472  143.3768  165.5469 C.3     1  UNL1        0.0018
      8 C         140.1771  139.7547  166.8758 C.3     1  UNL1        0.0307
      9 C         140.1023  140.7490  167.9964 C.ar    1  UNL1       -0.0258
     10 C         139.3216  140.4252  169.2355 C.ar    1  UNL1       -0.0046
     11 C         139.2468  141.4195  170.3561 C.ar    1  UNL1       -0.0003
     12 C         139.9527  142.7377  170.2374 C.ar    1  UNL1       -0.0003
     13 C         140.7334  143.0616  168.9983 C.ar    1  UNL1       -0.0046
     14 C         140.8082  142.0672  167.8777 C.ar    1  UNL1       -0.0264
     15 C         143.9310  143.3625  162.9208 C.3     1  UNL1        0.0721
     16 C         143.6985  142.5804  161.6622 C.3     1  UNL1        0.0191
     17 C         143.0804  143.3422  160.5274 C.3     1  UNL1        0.0062
     18 C         142.7260  142.8516  159.1549 C.3     1  UNL1        0.0277
     19 C         142.9021  141.4782  158.5781 C.ar    1  UNL1       -0.0063
     20 C         142.4138  141.4120  157.1614 C.ar    1  UNL1       -0.0014
     21 C         142.4995  140.1236  156.3981 C.ar    1  UNL1        0.0203
     22 C         143.0735  138.9015  157.0515 C.ar    1  UNL1        0.0985
     23 N         143.5619  138.9677  158.4682 N.ar    1  UNL1       -0.2461
     24 C         143.4762  140.2561  159.2315 C.ar    1  UNL1        0.0817
     25 C         144.0158  140.1056  160.6230 C.3     1  UNL1        0.1498
     26 O         144.5238  138.7400  160.9798 O.3     1  UNL1       -0.3785
     27 C         144.1148  141.1400  161.7047 C.3     1  UNL1        0.0368
     28 H         144.4172  138.1466  160.2200 H       1  UNL1        0.2108
@<TRIPOS>BOND
     1     8     9    1
     2     9    10   ar
     3    10    11   ar
     4    11    12   ar
     5    12    13   ar
     6    13    14   ar
     7     1    14    1
     8     1     2    1
     9     2     3    1
    10     3     4    1
    11     4    15    1
    12    16    15    1
    13    16    17    1
    14    17    18    1
    15    18    19    1
    16    19    20   ar
    17    20    21   ar
    18    21    22   ar
    19    22    23   ar
    20    23    24   ar
    21    24    25    1
    22    25    26    1
    23    25    27    1
    24     4     5    1
    25     5     6    1
    26     6     7    1
    27    14     9   ar
    28     6     1    1
    29    27    16    1
    30    24    19   ar
    31    26    28    1
@<TRIPOS>MOLECULE
*****
 28 31 0 0 0
SMALL
GASTEIGER

@<TRIPOS>ATOM
      1 C         140.1186  142.3247  166.6391 C.3     1  UNL1        0.0247
      2 C         139.8083  143.4893  165.7463 C.3     1  UNL1        0.0217
      3 C         138.8841  143.3133  164.5779 C.3     1  UNL1        0.0724
      4 N         138.2703  141.9727  164.3025 N.3     1  UNL1       -0.2727
      5 C         138.5806  140.8080  165.1954 C.3     1  UNL1        0.0724
      6 C         139.5048  140.9840  166.3637 C.3     1  UNL1        0.0201
      7 C         139.8151  139.8193  167.2567 C.3     1  UNL1        0.0018
      8 C         143.0272  141.6419  166.3670 C.3     1  UNL1        0.0307
      9 C         142.4971  142.1593  167.6714 C.ar    1  UNL1       -0.0258
     10 C         143.4213  142.3352  168.8397 C.ar    1  UNL1       -0.0046
     11 C         142.8911  142.8526  170.1440 C.ar    1  UNL1       -0.0003
     12 C         141.4369  143.1939  170.2801 C.ar    1  UNL1       -0.0003
     13 C         140.5127  143.0180  169.1118 C.ar    1  UNL1       -0.0046
     14 C         141.0428  142.5007  167.8075 C.ar    1  UNL1       -0.0264
     15 C         137.3461  141.7967  163.1342 C.3     1  UNL1        0.0721
     16 C         137.9071  141.5674  161.7621 C.3     1  UNL1        0.0191
     17 C         137.8276  140.1584  161.2536 C.3     1  UNL1        0.0062
     18 C         138.2948  139.6115  159.9373 C.3     1  UNL1        0.0277
     19 C         138.9568  140.3383  158.8044 C.ar    1  UNL1       -0.0063
     20 C         139.2634  139.4130  157.6643 C.ar    1  UNL1       -0.0014
     21 C         139.9284  139.9411  156.4279 C.ar    1  UNL1        0.0203
     22 C         140.2867  141.3945  156.3315 C.ar    1  UNL1        0.0985
     23 N         139.9801  142.3198  157.4715 N.ar    1  UNL1       -0.2461
     24 C         139.3152  141.7917  158.7080 C.ar    1  UNL1        0.0817
     25 C         139.1000  142.8771  159.7207 C.3     1  UNL1        0.1498
     26 O         139.5742  144.2430  159.3214 O.3     1  UNL1       -0.3785
     27 C         138.4734  142.7774  161.0799 C.3     1  UNL1        0.0368
     28 H         139.9612  144.2039  158.4328 H       1  UNL1        0.2108
@<TRIPOS>BOND
     1     8     9    1
     2     9    10   ar
     3    10    11   ar
     4    11    12   ar
     5    12    13   ar
     6    13    14   ar
     7     1    14    1
     8     1     2    1
     9     2     3    1
    10     3     4    1
    11     4    15    1
    12    16    15    1
    13    16    17    1
    14    17    18    1
    15    18    19    1
    16    19    20   ar
    17    20    21   ar
    18    21    22   ar
    19    22    23   ar
    20    23    24   ar
    21    24    25    1
    22    25    26    1
    23    25    27    1
    24     4     5    1
    25     5     6    1
    26     6     7    1
    27    14     9   ar
    28     6     1    1
    29    27    16    1
    30    24    19   ar
    31    26    28    1
