@<TRIPOS>MOLECULE
*****
 31 35 0 0 0
SMALL
GASTEIGER

@<TRIPOS>ATOM
      1 C         138.6544  140.0458  159.7230 C.ar    1  UNL1        0.1482
      2 C         138.5583  141.3908  159.0660 C.ar    1  UNL1        0.0581
      3 C         138.5248  142.6343  159.9042 C.ar    1  UNL1        0.1020
      4 N         138.5874  142.5327  161.3995 N.ar    1  UNL1       -0.2436
      5 C         138.6834  141.1877  162.0565 C.ar    1  UNL1        0.0842
      6 C         138.7460  141.0862  163.5517 C.ar    1  UNL1        0.0193
      7 C         138.8420  139.7412  164.2088 C.ar    1  UNL1        0.0045
      8 C         138.8755  138.4977  163.3705 C.ar    1  UNL1        0.0003
      9 C         138.8130  138.5992  161.8753 C.ar    1  UNL1        0.0045
     10 C         138.7169  139.9443  161.2183 C.ar    1  UNL1        0.0522
     11 C         138.9046  139.6397  165.7040 C.ar    1  UNL1        0.0397
     12 C         137.9119  138.9372  166.5823 C.ar    1  UNL1        0.1216
     13 N         138.3647  139.0862  168.0047 N.ar    1  UNL1       -0.1677
     14 N         139.6370  139.8807  168.0054 N.ar    1  UNL1       -0.2513
     15 C         139.9707  140.2227  166.5835 C.ar    1  UNL1        0.0965
     16 C         140.4354  140.2655  169.2155 C.3     1  UNL1        0.1080
     17 C         141.7401  139.5827  169.5014 C.3     1  UNL1        0.0415
     18 C         142.5386  139.9675  170.7115 C.3     1  UNL1        0.0706
     19 N         142.0324  141.0349  171.6357 N.3     1  UNL1       -0.2974
     20 C         140.7277  141.7177  171.3498 C.3     1  UNL1        0.0706
     21 C         139.9292  141.3329  170.1397 C.3     1  UNL1        0.0415
     22 H         142.7460  141.7632  171.6632 H       1  UNL1        0.1232
     23 O         138.6879  138.8023  158.8848 O.3     1  UNL1       -0.4534
     24 C         142.5665  137.4126  157.0751 C.ar    1  UNL1        0.1389
     25 C         141.2675  137.1089  156.3893 C.ar    1  UNL1        0.0400
     26 C         139.9747  137.5721  156.9925 C.ar    1  UNL1        0.0406
     27 C         139.9808  138.3391  158.2815 C.ar    1  UNL1        0.1455
     28 C         141.2798  138.6429  158.9674 C.ar    1  UNL1        0.0406
     29 C         142.5727  138.1797  158.3642 C.ar    1  UNL1        0.0400
     30 C         143.8553  135.8835  155.4165 C.3     1  UNL1        0.2525
     31 O         143.8594  136.9494  156.4718 O.3     1  UNL1       -0.4714
@<TRIPOS>BOND
     1    30    31    1
     2    31    24    1
     3    24    25   ar
     4    25    26   ar
     5    26    27   ar
     6    27    23    1
     7    23     1    1
     8     1     2   ar
     9     2     3   ar
    10     3     4   ar
    11     4     5   ar
    12     5     6   ar
    13     6     7   ar
    14     7    11    1
    15    11    12   ar
    16    12    13   ar
    17    13    14   ar
    18    14    16    1
    19    16    17    1
    20    17    18    1
    21    18    19    1
    22    19    20    1
    23    20    21    1
    24    14    15   ar
    25     7     8   ar
    26     8     9   ar
    27     9    10   ar
    28    27    28   ar
    29    28    29   ar
    30    29    24   ar
    31    10     1   ar
    32    10     5   ar
    33    15    11   ar
    34    21    16    1
    35    19    22    1
@<TRIPOS>MOLECULE
*****
 31 35 0 0 0
SMALL
GASTEIGER

@<TRIPOS>ATOM
      1 C         143.6426  140.0207  159.3806 C.ar    1  UNL1        0.1482
      2 C         143.7284  141.3737  158.7389 C.ar    1  UNL1        0.0581
      3 C         143.7171  142.6092  159.5894 C.ar    1  UNL1        0.1020
      4 N         143.6200  142.4916  161.0817 N.ar    1  UNL1       -0.2436
      5 C         143.5342  141.1385  161.7233 C.ar    1  UNL1        0.0842
      6 C         143.4372  141.0209  163.2156 C.ar    1  UNL1        0.0193
      7 C         143.3514  139.6679  163.8573 C.ar    1  UNL1        0.0045
      8 C         143.3627  138.4323  163.0067 C.ar    1  UNL1        0.0003
      9 C         143.4597  138.5499  161.5145 C.ar    1  UNL1        0.0045
     10 C         143.5455  139.9031  160.8728 C.ar    1  UNL1        0.0522
     11 C         143.2543  139.5503  165.3495 C.ar    1  UNL1        0.0397
     12 C         143.5144  138.3119  166.1551 C.ar    1  UNL1        0.1216
     13 N         143.3009  138.6467  167.6016 N.ar    1  UNL1       -0.1677
     14 N         142.9090  140.0919  167.6900 N.ar    1  UNL1       -0.2513
     15 C         142.8802  140.6503  166.2982 C.ar    1  UNL1        0.0965
     16 C         142.6002  140.8461  168.9492 C.3     1  UNL1        0.1080
     17 C         143.2343  142.1826  169.1976 C.3     1  UNL1        0.0415
     18 C         142.9255  142.9369  170.4568 C.3     1  UNL1        0.0706
     19 N         141.9825  142.3548  171.4676 N.3     1  UNL1       -0.2974
     20 C         141.3483  141.0183  171.2192 C.3     1  UNL1        0.0706
     21 C         141.6571  140.2640  169.9600 C.3     1  UNL1        0.0415
     22 H         141.2220  143.0250  171.5811 H       1  UNL1        0.1232
     23 O         143.6538  138.7851  158.5300 O.3     1  UNL1       -0.4534
     24 C         139.8627  137.3781  156.5557 C.ar    1  UNL1        0.1389
     25 C         141.1808  136.7822  156.1588 C.ar    1  UNL1        0.0400
     26 C         142.4445  137.2512  156.8169 C.ar    1  UNL1        0.0406
     27 C         142.3901  138.3161  157.8719 C.ar    1  UNL1        0.1455
     28 C         141.0720  138.9120  158.2689 C.ar    1  UNL1        0.0406
     29 C         139.8083  138.4430  157.6108 C.ar    1  UNL1        0.0400
     30 C         138.0319  137.6691  154.7354 C.3     1  UNL1        0.2525
     31 O         138.5990  136.9091  155.8976 O.3     1  UNL1       -0.4714
@<TRIPOS>BOND
     1    30    31    1
     2    31    24    1
     3    24    25   ar
     4    25    26   ar
     5    26    27   ar
     6    27    23    1
     7    23     1    1
     8     1     2   ar
     9     2     3   ar
    10     3     4   ar
    11     4     5   ar
    12     5     6   ar
    13     6     7   ar
    14     7    11    1
    15    11    12   ar
    16    12    13   ar
    17    13    14   ar
    18    14    16    1
    19    16    17    1
    20    17    18    1
    21    18    19    1
    22    19    20    1
    23    20    21    1
    24    14    15   ar
    25     7     8   ar
    26     8     9   ar
    27     9    10   ar
    28    27    28   ar
    29    28    29   ar
    30    29    24   ar
    31    10     1   ar
    32    10     5   ar
    33    15    11   ar
    34    21    16    1
    35    19    22    1
@<TRIPOS>MOLECULE
*****
 31 35 0 0 0
SMALL
GASTEIGER

@<TRIPOS>ATOM
      1 C         138.8867  139.4602  159.6472 C.ar    1  UNL1        0.1482
      2 C         140.0492  138.9113  158.8744 C.ar    1  UNL1        0.0581
      3 C         141.2469  138.3754  159.6011 C.ar    1  UNL1        0.1020
      4 N         141.2821  138.3883  161.1007 N.ar    1  UNL1       -0.2436
      5 C         140.1196  138.9373  161.8734 C.ar    1  UNL1        0.0842
      6 C         140.1548  138.9502  163.3730 C.ar    1  UNL1        0.0193
      7 C         138.9923  139.4992  164.1457 C.ar    1  UNL1        0.0045
      8 C         137.7945  140.0352  163.4190 C.ar    1  UNL1        0.0003
      9 C         137.7593  140.0222  161.9195 C.ar    1  UNL1        0.0045
     10 C         138.9219  139.4732  161.1467 C.ar    1  UNL1        0.0522
     11 C         139.0275  139.5121  165.6453 C.ar    1  UNL1        0.0397
     12 C         137.9996  138.9095  166.5566 C.ar    1  UNL1        0.1216
     13 N         138.4337  139.1550  167.9713 N.ar    1  UNL1       -0.1677
     14 N         139.7297  139.9093  167.9344 N.ar    1  UNL1       -0.2513
     15 C         140.0967  140.1300  166.4968 C.ar    1  UNL1        0.0965
     16 C         140.5199  140.3631  169.1258 C.3     1  UNL1        0.1080
     17 C         140.0211  141.4999  169.9678 C.3     1  UNL1        0.0415
     18 C         140.8112  141.9538  171.1592 C.3     1  UNL1        0.0706
     19 N         142.1002  141.2709  171.5087 N.3     1  UNL1       -0.2974
     20 C         142.5991  140.1341  170.6667 C.3     1  UNL1        0.0706
     21 C         141.8089  139.6802  169.4752 C.3     1  UNL1        0.0415
     22 H         141.9949  140.9107  172.4572 H       1  UNL1        0.1232
     23 O         137.6889  139.9962  158.9204 O.3     1  UNL1       -0.4534
     24 C         138.1218  143.5318  156.1705 C.ar    1  UNL1        0.1389
     25 C         138.9851  143.4218  157.3922 C.ar    1  UNL1        0.0400
     26 C         138.8408  142.2432  158.3088 C.ar    1  UNL1        0.0406
     27 C         137.8332  141.1748  158.0038 C.ar    1  UNL1        0.1455
     28 C         136.9699  141.2848  156.7820 C.ar    1  UNL1        0.0406
     29 C         137.1142  142.4633  155.8654 C.ar    1  UNL1        0.0400
     30 C         139.0976  145.8872  155.6705 C.3     1  UNL1        0.2525
     31 O         138.2661  144.7104  155.2538 O.3     1  UNL1       -0.4714
@<TRIPOS>BOND
     1    30    31    1
     2    31    24    1
     3    24    25   ar
     4    25    26   ar
     5    26    27   ar
     6    27    23    1
     7    23     1    1
     8     1     2   ar
     9     2     3   ar
    10     3     4   ar
    11     4     5   ar
    12     5     6   ar
    13     6     7   ar
    14     7    11    1
    15    11    12   ar
    16    12    13   ar
    17    13    14   ar
    18    14    16    1
    19    16    17    1
    20    17    18    1
    21    18    19    1
    22    19    20    1
    23    20    21    1
    24    14    15   ar
    25     7     8   ar
    26     8     9   ar
    27     9    10   ar
    28    27    28   ar
    29    28    29   ar
    30    29    24   ar
    31    10     1   ar
    32    10     5   ar
    33    15    11   ar
    34    21    16    1
    35    19    22    1
@<TRIPOS>MOLECULE
*****
 31 35 0 0 0
SMALL
GASTEIGER

@<TRIPOS>ATOM
      1 C         143.3350  140.1793  159.3271 C.ar    1  UNL1        0.1482
      2 C         143.0569  138.9925  158.4530 C.ar    1  UNL1        0.0581
      3 C         142.7397  137.6634  159.0716 C.ar    1  UNL1        0.1020
      4 N         142.7006  137.5210  160.5643 N.ar    1  UNL1       -0.2436
      5 C         142.9787  138.7078  161.4384 C.ar    1  UNL1        0.0842
      6 C         142.9396  138.5655  162.9311 C.ar    1  UNL1        0.0193
      7 C         143.2178  139.7522  163.8053 C.ar    1  UNL1        0.0045
      8 C         143.5350  141.0815  163.1867 C.ar    1  UNL1        0.0003
      9 C         143.5741  141.2238  161.6940 C.ar    1  UNL1        0.0045
     10 C         143.2959  140.0370  160.8198 C.ar    1  UNL1        0.0522
     11 C         143.1787  139.6099  165.2980 C.ar    1  UNL1        0.0397
     12 C         143.5019  138.3675  166.0740 C.ar    1  UNL1        0.1216
     13 N         143.3325  138.6747  167.5324 N.ar    1  UNL1       -0.1677
     14 N         142.9045  140.1069  167.6578 N.ar    1  UNL1       -0.2513
     15 C         142.8095  140.6848  166.2768 C.ar    1  UNL1        0.0965
     16 C         142.6214  140.8335  168.9391 C.3     1  UNL1        0.1080
     17 C         141.7078  140.2239  169.9607 C.3     1  UNL1        0.0415
     18 C         141.4246  140.9505  171.2421 C.3     1  UNL1        0.0706
     19 N         142.0550  142.2865  171.5018 N.3     1  UNL1       -0.2974
     20 C         142.9686  142.8961  170.4802 C.3     1  UNL1        0.0706
     21 C         143.2518  142.1695  169.1988 C.3     1  UNL1        0.0415
     22 H         142.5949  142.1951  172.3624 H       1  UNL1        0.1232
     23 O         143.6522  141.5086  158.7085 O.3     1  UNL1       -0.4534
     24 C         147.1206  141.8980  155.8680 C.ar    1  UNL1        0.1389
     25 C         147.0746  142.7315  157.1142 C.ar    1  UNL1        0.0400
     26 C         145.9184  142.6017  158.0610 C.ar    1  UNL1        0.0406
     27 C         144.8084  141.6384  157.7617 C.ar    1  UNL1        0.1455
     28 C         144.8544  140.8048  156.5154 C.ar    1  UNL1        0.0406
     29 C         146.0105  140.9346  155.5686 C.ar    1  UNL1        0.0400
     30 C         149.6513  141.6118  155.3543 C.3     1  UNL1        0.2525
     31 O         148.2768  142.0278  154.9211 O.3     1  UNL1       -0.4714
@<TRIPOS>BOND
     1    30    31    1
     2    31    24    1
     3    24    25   ar
     4    25    26   ar
     5    26    27   ar
     6    27    23    1
     7    23     1    1
     8     1     2   ar
     9     2     3   ar
    10     3     4   ar
    11     4     5   ar
    12     5     6   ar
    13     6     7   ar
    14     7    11    1
    15    11    12   ar
    16    12    13   ar
    17    13    14   ar
    18    14    16    1
    19    16    17    1
    20    17    18    1
    21    18    19    1
    22    19    20    1
    23    20    21    1
    24    14    15   ar
    25     7     8   ar
    26     8     9   ar
    27     9    10   ar
    28    27    28   ar
    29    28    29   ar
    30    29    24   ar
    31    10     1   ar
    32    10     5   ar
    33    15    11   ar
    34    21    16    1
    35    19    22    1
@<TRIPOS>MOLECULE
*****
 31 35 0 0 0
SMALL
GASTEIGER

@<TRIPOS>ATOM
      1 C         144.0385  139.3908  164.1666 C.ar    1  UNL1        0.1482
      2 C         144.9575  140.5249  164.5119 C.ar    1  UNL1        0.0581
      3 C         145.4895  141.4155  163.4286 C.ar    1  UNL1        0.1020
      4 N         145.1026  141.1721  161.9999 N.ar    1  UNL1       -0.2436
      5 C         144.1837  140.0379  161.6546 C.ar    1  UNL1        0.0842
      6 C         143.7968  139.7945  160.2260 C.ar    1  UNL1        0.0193
      7 C         142.8778  138.6604  159.8806 C.ar    1  UNL1        0.0045
      8 C         142.3458  137.7696  160.9640 C.ar    1  UNL1        0.0003
      9 C         142.7326  138.0131  162.3926 C.ar    1  UNL1        0.0045
     10 C         143.6516  139.1473  162.7379 C.ar    1  UNL1        0.0522
     11 C         142.4910  138.4169  158.4520 C.ar    1  UNL1        0.0397
     12 C         141.9085  139.4299  157.5113 C.ar    1  UNL1        0.1216
     13 N         141.6762  138.7567  156.1911 N.ar    1  UNL1       -0.1677
     14 N         142.1150  137.3277  156.3158 N.ar    1  UNL1       -0.2513
     15 C         142.6185  137.1177  157.7131 C.ar    1  UNL1        0.0965
     16 C         142.0598  136.2909  155.2334 C.3     1  UNL1        0.1080
     17 C         142.1855  134.8370  155.5804 C.3     1  UNL1        0.0415
     18 C         142.1304  133.8001  154.4979 C.3     1  UNL1        0.0706
     19 N         141.9496  134.2171  153.0684 N.3     1  UNL1       -0.2974
     20 C         141.8240  135.6710  152.7214 C.3     1  UNL1        0.0706
     21 C         141.8791  136.7079  153.8039 C.3     1  UNL1        0.0415
     22 H         141.1015  133.7601  152.7333 H       1  UNL1        0.1232
     23 O         143.5064  138.5001  165.2499 O.3     1  UNL1       -0.4534
     24 C         140.4246  140.0600  168.1341 C.ar    1  UNL1        0.1389
     25 C         140.0567  139.8222  166.6995 C.ar    1  UNL1        0.0400
     26 C         141.0840  139.3022  165.7381 C.ar    1  UNL1        0.0406
     27 C         142.4791  139.0200  166.2113 C.ar    1  UNL1        0.1455
     28 C         142.8471  139.2579  167.6460 C.ar    1  UNL1        0.0406
     29 C         141.8198  139.7779  168.6074 C.ar    1  UNL1        0.0400
     30 C         139.7514  141.6842  170.0469 C.3     1  UNL1        0.2525
     31 O         139.3973  140.5800  169.0955 O.3     1  UNL1       -0.4714
@<TRIPOS>BOND
     1    30    31    1
     2    31    24    1
     3    24    25   ar
     4    25    26   ar
     5    26    27   ar
     6    27    23    1
     7    23     1    1
     8     1     2   ar
     9     2     3   ar
    10     3     4   ar
    11     4     5   ar
    12     5     6   ar
    13     6     7   ar
    14     7    11    1
    15    11    12   ar
    16    12    13   ar
    17    13    14   ar
    18    14    16    1
    19    16    17    1
    20    17    18    1
    21    18    19    1
    22    19    20    1
    23    20    21    1
    24    14    15   ar
    25     7     8   ar
    26     8     9   ar
    27     9    10   ar
    28    27    28   ar
    29    28    29   ar
    30    29    24   ar
    31    10     1   ar
    32    10     5   ar
    33    15    11   ar
    34    21    16    1
    35    19    22    1
@<TRIPOS>MOLECULE
*****
 31 35 0 0 0
SMALL
GASTEIGER

@<TRIPOS>ATOM
      1 C         138.1365  141.3550  164.1742 C.ar    1  UNL1        0.1482
      2 C         137.7535  142.7908  164.3782 C.ar    1  UNL1        0.0581
      3 C         137.7251  143.7325  163.2110 C.ar    1  UNL1        0.1020
      4 N         138.0797  143.2384  161.8398 N.ar    1  UNL1       -0.2436
      5 C         138.4628  141.8026  161.6358 C.ar    1  UNL1        0.0842
      6 C         138.8174  141.3085  160.2647 C.ar    1  UNL1        0.0193
      7 C         139.2004  139.8727  160.0607 C.ar    1  UNL1        0.0045
      8 C         139.2289  138.9309  161.2279 C.ar    1  UNL1        0.0003
      9 C         138.8742  139.4250  162.5990 C.ar    1  UNL1        0.0045
     10 C         138.4912  140.8609  162.8030 C.ar    1  UNL1        0.0522
     11 C         139.5551  139.3786  158.6895 C.ar    1  UNL1        0.0397
     12 C         138.9098  139.8053  157.4043 C.ar    1  UNL1        0.1216
     13 N         139.5732  139.0614  156.2833 N.ar    1  UNL1       -0.1677
     14 N         140.6284  138.1750  156.8756 N.ar    1  UNL1       -0.2513
     15 C         140.6172  138.3711  158.3627 C.ar    1  UNL1        0.0965
     16 C         141.5355  137.2543  156.1145 C.3     1  UNL1        0.1080
     17 C         142.9889  137.1665  156.4750 C.3     1  UNL1        0.0415
     18 C         143.8961  136.2458  155.7138 C.3     1  UNL1        0.0706
     19 N         143.3498  135.4129  154.5922 N.3     1  UNL1       -0.2974
     20 C         141.8964  135.5008  154.2317 C.3     1  UNL1        0.0706
     21 C         140.9893  136.4215  154.9929 C.3     1  UNL1        0.0415
     22 H         143.5356  134.4389  154.8313 H       1  UNL1        0.1232
     23 O         138.1650  140.4132  165.3414 O.3     1  UNL1       -0.4534
     24 C         141.7725  140.2673  168.0273 C.ar    1  UNL1        0.1389
     25 C         141.9181  140.7009  166.5988 C.ar    1  UNL1        0.0400
     26 C         140.7156  140.7495  165.7034 C.ar    1  UNL1        0.0406
     27 C         139.3675  140.3646  166.2367 C.ar    1  UNL1        0.1455
     28 C         139.2218  139.9309  167.6653 C.ar    1  UNL1        0.0406
     29 C         140.4244  139.8823  168.5606 C.ar    1  UNL1        0.0400
     30 C         143.2975  141.3846  169.8094 C.3     1  UNL1        0.2525
     31 O         142.9751  140.2186  168.9226 O.3     1  UNL1       -0.4714
@<TRIPOS>BOND
     1    30    31    1
     2    31    24    1
     3    24    25   ar
     4    25    26   ar
     5    26    27   ar
     6    27    23    1
     7    23     1    1
     8     1     2   ar
     9     2     3   ar
    10     3     4   ar
    11     4     5   ar
    12     5     6   ar
    13     6     7   ar
    14     7    11    1
    15    11    12   ar
    16    12    13   ar
    17    13    14   ar
    18    14    16    1
    19    16    17    1
    20    17    18    1
    21    18    19    1
    22    19    20    1
    23    20    21    1
    24    14    15   ar
    25     7     8   ar
    26     8     9   ar
    27     9    10   ar
    28    27    28   ar
    29    28    29   ar
    30    29    24   ar
    31    10     1   ar
    32    10     5   ar
    33    15    11   ar
    34    21    16    1
    35    19    22    1
@<TRIPOS>MOLECULE
*****
 31 35 0 0 0
SMALL
GASTEIGER

@<TRIPOS>ATOM
      1 C         139.2577  138.6769  164.4733 C.ar    1  UNL1        0.1482
      2 C         140.2469  137.5549  164.5850 C.ar    1  UNL1        0.0581
      3 C         140.9708  137.0691  163.3644 C.ar    1  UNL1        0.1020
      4 N         140.7054  137.7052  162.0321 N.ar    1  UNL1       -0.2436
      5 C         139.7162  138.8272  161.9205 C.ar    1  UNL1        0.0842
      6 C         139.4509  139.4633  160.5882 C.ar    1  UNL1        0.0193
      7 C         138.4616  140.5853  160.4765 C.ar    1  UNL1        0.0045
      8 C         137.7377  141.0713  161.6972 C.ar    1  UNL1        0.0003
      9 C         138.0031  140.4351  163.0294 C.ar    1  UNL1        0.0045
     10 C         138.9924  139.3131  163.1411 C.ar    1  UNL1        0.0522
     11 C         138.1963  141.2215  159.1443 C.ar    1  UNL1        0.0397
     12 C         138.6834  142.5681  158.6975 C.ar    1  UNL1        0.1216
     13 N         138.1854  142.8015  157.3020 N.ar    1  UNL1       -0.1677
     14 N         137.3905  141.5993  156.8862 N.ar    1  UNL1       -0.2513
     15 C         137.3973  140.6228  158.0248 C.ar    1  UNL1        0.0965
     16 C         136.7087  141.4073  155.5641 C.3     1  UNL1        0.1080
     17 C         137.5048  141.4664  154.2941 C.3     1  UNL1        0.0415
     18 C         136.8230  141.2744  152.9719 C.3     1  UNL1        0.0706
     19 N         135.3451  141.0234  152.9196 N.3     1  UNL1       -0.2974
     20 C         134.5490  140.9644  154.1896 C.3     1  UNL1        0.0706
     21 C         135.2308  141.1563  155.5118 C.3     1  UNL1        0.0415
     22 H         135.2150  140.1281  152.4486 H       1  UNL1        0.1232
     23 O         138.5338  139.1629  165.6940 O.3     1  UNL1       -0.4534
     24 C         140.5468  142.0412  168.5069 C.ar    1  UNL1        0.1389
     25 C         139.9356  140.7781  169.0370 C.ar    1  UNL1        0.0400
     26 C         139.2646  139.8187  168.0993 C.ar    1  UNL1        0.0406
     27 C         139.2048  140.1223  166.6316 C.ar    1  UNL1        0.1455
     28 C         139.8160  141.3854  166.1015 C.ar    1  UNL1        0.0406
     29 C         140.4870  142.3449  167.0391 C.ar    1  UNL1        0.0400
     30 C         140.4509  144.1612  170.0057 C.3     1  UNL1        0.2525
     31 O         141.2178  143.0007  169.4446 O.3     1  UNL1       -0.4714
@<TRIPOS>BOND
     1    30    31    1
     2    31    24    1
     3    24    25   ar
     4    25    26   ar
     5    26    27   ar
     6    27    23    1
     7    23     1    1
     8     1     2   ar
     9     2     3   ar
    10     3     4   ar
    11     4     5   ar
    12     5     6   ar
    13     6     7   ar
    14     7    11    1
    15    11    12   ar
    16    12    13   ar
    17    13    14   ar
    18    14    16    1
    19    16    17    1
    20    17    18    1
    21    18    19    1
    22    19    20    1
    23    20    21    1
    24    14    15   ar
    25     7     8   ar
    26     8     9   ar
    27     9    10   ar
    28    27    28   ar
    29    28    29   ar
    30    29    24   ar
    31    10     1   ar
    32    10     5   ar
    33    15    11   ar
    34    21    16    1
    35    19    22    1
@<TRIPOS>MOLECULE
*****
 31 35 0 0 0
SMALL
GASTEIGER

@<TRIPOS>ATOM
      1 C         138.7950  140.4650  159.4905 C.ar    1  UNL1        0.1482
      2 C         139.0081  141.8167  158.8763 C.ar    1  UNL1        0.0581
      3 C         139.2759  143.0047  159.7521 C.ar    1  UNL1        0.1020
      4 N         139.3304  142.8408  161.2422 N.ar    1  UNL1       -0.2436
      5 C         139.1173  141.4890  161.8563 C.ar    1  UNL1        0.0842
      6 C         139.1719  141.3252  163.3464 C.ar    1  UNL1        0.0193
      7 C         138.9587  139.9734  163.9606 C.ar    1  UNL1        0.0045
      8 C         138.6910  138.7854  163.0847 C.ar    1  UNL1        0.0003
      9 C         138.6364  138.9493  161.5947 C.ar    1  UNL1        0.0045
     10 C         138.8496  140.3011  160.9805 C.ar    1  UNL1        0.0522
     11 C         139.0133  139.8096  165.4506 C.ar    1  UNL1        0.0397
     12 C         138.0700  138.9925  166.2829 C.ar    1  UNL1        0.1216
     13 N         138.4945  139.1120  167.7166 N.ar    1  UNL1       -0.1677
     14 N         139.7001  140.0029  167.7704 N.ar    1  UNL1       -0.2513
     15 C         140.0207  140.4340  166.3699 C.ar    1  UNL1        0.0965
     16 C         140.4528  140.3939  169.0075 C.3     1  UNL1        0.1080
     17 C         139.9127  141.4664  169.9065 C.3     1  UNL1        0.0415
     18 C         140.6654  141.8575  171.1436 C.3     1  UNL1        0.0706
     19 N         141.9582  141.1761  171.4817 N.3     1  UNL1       -0.2974
     20 C         142.4983  140.1037  170.5828 C.3     1  UNL1        0.0706
     21 C         141.7456  139.7126  169.3456 C.3     1  UNL1        0.0415
     22 H         141.8369  140.7549  172.4027 H       1  UNL1        0.1232
     23 O         138.5273  139.2770  158.6146 O.3     1  UNL1       -0.4534
     24 C         141.7834  137.6553  155.9655 C.ar    1  UNL1        0.1389
     25 C         142.0456  137.8780  157.4255 C.ar    1  UNL1        0.0400
     26 C         140.9602  138.4185  158.3085 C.ar    1  UNL1        0.0406
     27 C         139.6126  138.7364  157.7316 C.ar    1  UNL1        0.1455
     28 C         139.3504  138.5137  156.2715 C.ar    1  UNL1        0.0406
     29 C         140.4357  137.9732  155.3885 C.ar    1  UNL1        0.0400
     30 C         144.0794  136.4710  155.6906 C.3     1  UNL1        0.2525
     31 O         142.8688  137.1148  155.0825 O.3     1  UNL1       -0.4714
@<TRIPOS>BOND
     1    30    31    1
     2    31    24    1
     3    24    25   ar
     4    25    26   ar
     5    26    27   ar
     6    27    23    1
     7    23     1    1
     8     1     2   ar
     9     2     3   ar
    10     3     4   ar
    11     4     5   ar
    12     5     6   ar
    13     6     7   ar
    14     7    11    1
    15    11    12   ar
    16    12    13   ar
    17    13    14   ar
    18    14    16    1
    19    16    17    1
    20    17    18    1
    21    18    19    1
    22    19    20    1
    23    20    21    1
    24    14    15   ar
    25     7     8   ar
    26     8     9   ar
    27     9    10   ar
    28    27    28   ar
    29    28    29   ar
    30    29    24   ar
    31    10     1   ar
    32    10     5   ar
    33    15    11   ar
    34    21    16    1
    35    19    22    1
@<TRIPOS>MOLECULE
*****
 31 35 0 0 0
SMALL
GASTEIGER

@<TRIPOS>ATOM
      1 C         141.0163  138.4723  159.1611 C.ar    1  UNL1        0.1482
      2 C         139.7297  139.0132  158.6116 C.ar    1  UNL1        0.0581
      3 C         138.7405  139.6705  159.5277 C.ar    1  UNL1        0.1020
      4 N         139.0378  139.7869  160.9933 N.ar    1  UNL1       -0.2436
      5 C         140.3244  139.2459  161.5428 C.ar    1  UNL1        0.0842
      6 C         140.6217  139.3623  163.0085 C.ar    1  UNL1        0.0193
      7 C         141.9083  138.8213  163.5580 C.ar    1  UNL1        0.0045
      8 C         142.8976  138.1640  162.6419 C.ar    1  UNL1        0.0003
      9 C         142.6003  138.0476  161.1763 C.ar    1  UNL1        0.0045
     10 C         141.3136  138.5886  160.6268 C.ar    1  UNL1        0.0522
     11 C         142.2056  138.9377  165.0236 C.ar    1  UNL1        0.0397
     12 C         143.4390  138.4374  165.7155 C.ar    1  UNL1        0.1216
     13 N         143.3174  138.7653  167.1742 N.ar    1  UNL1       -0.1677
     14 N         142.0089  139.4682  167.3839 N.ar    1  UNL1       -0.2513
     15 C         141.3219  139.5747  166.0547 C.ar    1  UNL1        0.0965
     16 C         141.4805  139.9754  168.6928 C.3     1  UNL1        0.1080
     17 C         140.0029  140.1414  168.8913 C.3     1  UNL1        0.0415
     18 C         139.4744  140.6487  170.2002 C.3     1  UNL1        0.0706
     19 N         140.4233  140.9899  171.3106 N.3     1  UNL1       -0.2974
     20 C         141.9009  140.8239  171.1121 C.3     1  UNL1        0.0706
     21 C         142.4294  140.3167  169.8031 C.3     1  UNL1        0.0415
     22 H         140.1660  140.4073  172.1073 H       1  UNL1        0.1232
     23 O         142.0056  137.8149  158.2450 O.3     1  UNL1       -0.4534
     24 C         145.0095  140.3132  156.0122 C.ar    1  UNL1        0.1389
     25 C         144.5472  140.7361  157.3751 C.ar    1  UNL1        0.0400
     26 C         143.5459  139.9033  158.1193 C.ar    1  UNL1        0.0406
     27 C         143.0069  138.6476  157.5008 C.ar    1  UNL1        0.1455
     28 C         143.4692  138.2246  156.1378 C.ar    1  UNL1        0.0406
     29 C         144.4705  139.0574  155.3936 C.ar    1  UNL1        0.0400
     30 C         146.8667  142.1299  156.0089 C.3     1  UNL1        0.2525
     31 O         146.0108  141.1459  155.2679 O.3     1  UNL1       -0.4714
@<TRIPOS>BOND
     1    30    31    1
     2    31    24    1
     3    24    25   ar
     4    25    26   ar
     5    26    27   ar
     6    27    23    1
     7    23     1    1
     8     1     2   ar
     9     2     3   ar
    10     3     4   ar
    11     4     5   ar
    12     5     6   ar
    13     6     7   ar
    14     7    11    1
    15    11    12   ar
    16    12    13   ar
    17    13    14   ar
    18    14    16    1
    19    16    17    1
    20    17    18    1
    21    18    19    1
    22    19    20    1
    23    20    21    1
    24    14    15   ar
    25     7     8   ar
    26     8     9   ar
    27     9    10   ar
    28    27    28   ar
    29    28    29   ar
    30    29    24   ar
    31    10     1   ar
    32    10     5   ar
    33    15    11   ar
    34    21    16    1
    35    19    22    1
