@<TRIPOS>MOLECULE
*****
 27 30 0 0 0
SMALL
GASTEIGER

@<TRIPOS>ATOM
      1 O         143.6470  142.5857  166.8718 O.2     1  UNL1       -0.2900
      2 P         142.4951  142.1137  166.0350 P.3     1  UNL1        0.2302
      3 C         141.8878  141.4591  167.2404 C.ar    1  UNL1        0.0500
      4 C         140.6466  142.0309  167.8589 C.ar    1  UNL1        0.0047
      5 C         140.0394  141.3763  169.0642 C.ar    1  UNL1        0.0002
      6 C         140.6733  140.1499  169.6509 C.ar    1  UNL1        0.0000
      7 C         141.9144  139.5781  169.0324 C.ar    1  UNL1        0.0002
      8 C         142.5216  140.2327  167.8271 C.ar    1  UNL1        0.0047
      9 C         143.1024  142.7683  164.8298 C.ar    1  UNL1        0.0500
     10 C         143.7938  141.9346  163.7920 C.ar    1  UNL1        0.0047
     11 C         144.4011  142.5893  162.5867 C.ar    1  UNL1        0.0002
     12 C         144.3170  144.0775  162.4193 C.ar    1  UNL1        0.0000
     13 C         143.6256  144.9112  163.4571 C.ar    1  UNL1        0.0002
     14 C         143.0183  144.2566  164.6623 C.ar    1  UNL1        0.0047
     15 N         141.3431  141.6417  165.1983 N.pl3   1  UNL1       -0.2374
     16 C         141.1213  140.1733  164.9874 C.ar    1  UNL1        0.0767
     17 C         139.8018  139.5554  165.3437 C.ar    1  UNL1        0.0183
     18 C         139.5799  138.0869  165.1329 C.ar    1  UNL1        0.0220
     19 C         140.6776  137.2364  164.5658 C.ar    1  UNL1        0.0990
     20 N         141.9972  137.8543  164.2095 N.ar    1  UNL1       -0.2410
     21 C         142.2191  139.3228  164.4203 C.ar    1  UNL1        0.1140
     22 C         140.4129  142.6383  164.5723 C.ar    1  UNL1        0.0767
     23 C         139.7342  143.6691  165.4247 C.ar    1  UNL1        0.0183
     24 C         138.8041  144.6656  164.7988 C.ar    1  UNL1        0.0220
     25 C         138.5526  144.6312  163.3204 C.ar    1  UNL1        0.0990
     26 N         139.2313  143.6003  162.4679 N.ar    1  UNL1       -0.2410
     27 C         140.1615  142.6038  163.0939 C.ar    1  UNL1        0.1140
@<TRIPOS>BOND
     1     1     2    2
     2     2     3    1
     3     3     4   ar
     4     4     5   ar
     5     5     6   ar
     6     6     7   ar
     7     7     8   ar
     8     2     9    1
     9     9    10   ar
    10    10    11   ar
    11    11    12   ar
    12    12    13   ar
    13    13    14   ar
    14     2    15    1
    15    15    16    1
    16    16    17   ar
    17    17    18   ar
    18    18    19   ar
    19    19    20   ar
    20    20    21   ar
    21    15    22    1
    22    22    23   ar
    23    23    24   ar
    24    24    25   ar
    25    25    26   ar
    26    26    27   ar
    27     8     3   ar
    28    14     9   ar
    29    21    16   ar
    30    27    22   ar
@<TRIPOS>MOLECULE
*****
 27 30 0 0 0
SMALL
GASTEIGER

@<TRIPOS>ATOM
      1 O         143.6448  142.5831  166.8694 O.2     1  UNL1       -0.2900
      2 P         142.4884  142.1152  166.0365 P.3     1  UNL1        0.2302
      3 C         141.8809  141.4662  167.2448 C.ar    1  UNL1        0.0500
      4 C         140.6410  142.0423  167.8618 C.ar    1  UNL1        0.0047
      5 C         140.0335  141.3934  169.0700 C.ar    1  UNL1        0.0002
      6 C         140.6658  140.1683  169.6611 C.ar    1  UNL1        0.0000
      7 C         141.9057  139.5922  169.0441 C.ar    1  UNL1        0.0002
      8 C         142.5132  140.2412  167.8359 C.ar    1  UNL1        0.0047
      9 C         143.0960  142.7641  164.8284 C.ar    1  UNL1        0.0500
     10 C         143.0175  144.2522  164.6570 C.ar    1  UNL1        0.0047
     11 C         143.6252  144.9011  163.4488 C.ar    1  UNL1        0.0002
     12 C         144.3113  144.0619  162.4120 C.ar    1  UNL1        0.0000
     13 C         144.3898  142.5738  162.5833 C.ar    1  UNL1        0.0002
     14 C         143.7822  141.9249  163.7915 C.ar    1  UNL1        0.0047
     15 N         141.3320  141.6472  165.2036 N.pl3   1  UNL1       -0.2374
     16 C         140.4012  142.6469  164.5837 C.ar    1  UNL1        0.0767
     17 C         139.7249  143.6746  165.4417 C.ar    1  UNL1        0.0183
     18 C         138.7941  144.6743  164.8218 C.ar    1  UNL1        0.0220
     19 C         138.5396  144.6461  163.3438 C.ar    1  UNL1        0.0990
     20 N         139.2159  143.6183  162.4857 N.ar    1  UNL1       -0.2410
     21 C         140.1468  142.6187  163.1057 C.ar    1  UNL1        0.1140
     22 C         141.1064  140.1796  164.9906 C.ar    1  UNL1        0.0767
     23 C         139.7873  139.5635  165.3517 C.ar    1  UNL1        0.0183
     24 C         139.5616  138.0960  165.1388 C.ar    1  UNL1        0.0220
     25 C         140.6551  137.2445  164.5647 C.ar    1  UNL1        0.0990
     26 N         141.9742  137.8607  164.2036 N.ar    1  UNL1       -0.2410
     27 C         142.1998  139.3283  164.4166 C.ar    1  UNL1        0.1140
@<TRIPOS>BOND
     1     1     2    2
     2     2     3    1
     3     3     4   ar
     4     4     5   ar
     5     5     6   ar
     6     6     7   ar
     7     7     8   ar
     8     2     9    1
     9     9    10   ar
    10    10    11   ar
    11    11    12   ar
    12    12    13   ar
    13    13    14   ar
    14     2    15    1
    15    15    16    1
    16    16    17   ar
    17    17    18   ar
    18    18    19   ar
    19    19    20   ar
    20    20    21   ar
    21    15    22    1
    22    22    23   ar
    23    23    24   ar
    24    24    25   ar
    25    25    26   ar
    26    26    27   ar
    27     8     3   ar
    28    14     9   ar
    29    21    16   ar
    30    27    22   ar
@<TRIPOS>MOLECULE
*****
 27 30 0 0 0
SMALL
GASTEIGER

@<TRIPOS>ATOM
      1 O         143.6527  142.5799  166.8722 O.2     1  UNL1       -0.2900
      2 P         142.4992  142.1117  166.0355 P.3     1  UNL1        0.2302
      3 C         143.1120  142.7585  164.8288 C.ar    1  UNL1        0.0500
      4 C         143.0336  144.2462  164.6540 C.ar    1  UNL1        0.0047
      5 C         143.6465  144.8929  163.4473 C.ar    1  UNL1        0.0002
      6 C         144.3377  144.0519  162.4154 C.ar    1  UNL1        0.0000
      7 C         144.4161  142.5642  162.5901 C.ar    1  UNL1        0.0002
      8 C         143.8033  141.9175  163.7968 C.ar    1  UNL1        0.0047
      9 C         141.8864  141.4650  167.2422 C.ar    1  UNL1        0.0500
     10 C         140.6434  142.0418  167.8524 C.ar    1  UNL1        0.0047
     11 C         140.0306  141.3950  169.0592 C.ar    1  UNL1        0.0002
     12 C         140.6608  140.1715  169.6557 C.ar    1  UNL1        0.0000
     13 C         141.9038  139.5947  169.0456 C.ar    1  UNL1        0.0002
     14 C         142.5166  140.2415  167.8388 C.ar    1  UNL1        0.0047
     15 N         141.3456  141.6435  165.1988 N.pl3   1  UNL1       -0.2374
     16 C         141.1222  140.1760  164.9835 C.ar    1  UNL1        0.0767
     17 C         139.8034  139.5576  165.3416 C.ar    1  UNL1        0.0183
     18 C         139.5799  138.0901  165.1263 C.ar    1  UNL1        0.0220
     19 C         140.6753  137.2409  164.5529 C.ar    1  UNL1        0.0990
     20 N         141.9943  137.8592  164.1947 N.ar    1  UNL1       -0.2410
     21 C         142.2177  139.3268  164.4100 C.ar    1  UNL1        0.1140
     22 C         140.4154  142.6429  164.5774 C.ar    1  UNL1        0.0767
     23 C         139.7294  143.6639  165.4359 C.ar    1  UNL1        0.0183
     24 C         138.7993  144.6632  164.8145 C.ar    1  UNL1        0.0220
     25 C         138.5551  144.6416  163.3347 C.ar    1  UNL1        0.0990
     26 N         139.2411  143.6206  162.4762 N.ar    1  UNL1       -0.2410
     27 C         140.1713  142.6213  163.0976 C.ar    1  UNL1        0.1140
@<TRIPOS>BOND
     1     1     2    2
     2     2     3    1
     3     3     4   ar
     4     4     5   ar
     5     5     6   ar
     6     6     7   ar
     7     7     8   ar
     8     2     9    1
     9     9    10   ar
    10    10    11   ar
    11    11    12   ar
    12    12    13   ar
    13    13    14   ar
    14     2    15    1
    15    15    16    1
    16    16    17   ar
    17    17    18   ar
    18    18    19   ar
    19    19    20   ar
    20    20    21   ar
    21    15    22    1
    22    22    23   ar
    23    23    24   ar
    24    24    25   ar
    25    25    26   ar
    26    26    27   ar
    27     8     3   ar
    28    14     9   ar
    29    21    16   ar
    30    27    22   ar
@<TRIPOS>MOLECULE
*****
 27 30 0 0 0
SMALL
GASTEIGER

@<TRIPOS>ATOM
      1 O         143.6580  142.5757  166.8713 O.2     1  UNL1       -0.2900
      2 P         142.5022  142.1075  166.0377 P.3     1  UNL1        0.2302
      3 C         143.1039  142.7676  164.8326 C.ar    1  UNL1        0.0500
      4 C         143.7928  141.9391  163.7892 C.ar    1  UNL1        0.0047
      5 C         144.3945  142.5992  162.5842 C.ar    1  UNL1        0.0002
      6 C         144.3073  144.0880  162.4226 C.ar    1  UNL1        0.0000
      7 C         143.6184  144.9165  163.4661 C.ar    1  UNL1        0.0002
      8 C         143.0167  144.2564  164.6711 C.ar    1  UNL1        0.0047
      9 C         141.9005  141.4474  167.2428 C.ar    1  UNL1        0.0500
     10 C         142.5429  140.2243  167.8272 C.ar    1  UNL1        0.0047
     11 C         141.9412  139.5642  169.0323 C.ar    1  UNL1        0.0002
     12 C         140.6971  140.1272  169.6530 C.ar    1  UNL1        0.0000
     13 C         140.0547  141.3502  169.0686 C.ar    1  UNL1        0.0002
     14 C         140.6563  142.0103  167.8636 C.ar    1  UNL1        0.0047
     15 N         141.3464  141.6393  165.2042 N.pl3   1  UNL1       -0.2374
     16 C         140.4043  142.6379  164.5998 C.ar    1  UNL1        0.0767
     17 C         139.7175  143.6453  165.4735 C.ar    1  UNL1        0.0183
     18 C         138.7755  144.6440  164.8691 C.ar    1  UNL1        0.0220
     19 C         138.5203  144.6353  163.3910 C.ar    1  UNL1        0.0990
     20 N         139.2072  143.6278  162.5173 N.ar    1  UNL1       -0.2410
     21 C         140.1492  142.6292  163.1216 C.ar    1  UNL1        0.1140
     22 C         141.1325  140.1723  164.9750 C.ar    1  UNL1        0.0767
     23 C         139.8204  139.5405  165.3344 C.ar    1  UNL1        0.0183
     24 C         139.6065  138.0737  165.1052 C.ar    1  UNL1        0.0220
     25 C         140.7048  137.2386  164.5166 C.ar    1  UNL1        0.0990
     26 N         142.0169  137.8704  164.1572 N.ar    1  UNL1       -0.2410
     27 C         142.2308  139.3373  164.3864 C.ar    1  UNL1        0.1140
@<TRIPOS>BOND
     1     1     2    2
     2     2     3    1
     3     3     4   ar
     4     4     5   ar
     5     5     6   ar
     6     6     7   ar
     7     7     8   ar
     8     2     9    1
     9     9    10   ar
    10    10    11   ar
    11    11    12   ar
    12    12    13   ar
    13    13    14   ar
    14     2    15    1
    15    15    16    1
    16    16    17   ar
    17    17    18   ar
    18    18    19   ar
    19    19    20   ar
    20    20    21   ar
    21    15    22    1
    22    22    23   ar
    23    23    24   ar
    24    24    25   ar
    25    25    26   ar
    26    26    27   ar
    27     8     3   ar
    28    14     9   ar
    29    21    16   ar
    30    27    22   ar
@<TRIPOS>MOLECULE
*****
 27 30 0 0 0
SMALL
GASTEIGER

@<TRIPOS>ATOM
      1 O         142.2711  139.3683  166.6955 O.2     1  UNL1       -0.2900
      2 P         141.6179  139.8400  165.4303 P.3     1  UNL1        0.2302
      3 C         142.9244  140.4164  164.9707 C.ar    1  UNL1        0.0500
      4 C         144.0160  139.5083  164.4873 C.ar    1  UNL1        0.0047
      5 C         145.3224  140.0847  164.0278 C.ar    1  UNL1        0.0002
      6 C         145.5371  141.5691  164.0518 C.ar    1  UNL1        0.0000
      7 C         144.4455  142.4771  164.5353 C.ar    1  UNL1        0.0002
      8 C         143.1391  141.9007  164.9947 C.ar    1  UNL1        0.0047
      9 C         140.3116  139.2637  165.8898 C.ar    1  UNL1        0.0500
     10 C         139.5906  139.8746  167.0547 C.ar    1  UNL1        0.0047
     11 C         138.2842  139.2982  167.5142 C.ar    1  UNL1        0.0002
     12 C         137.6987  138.1110  166.8088 C.ar    1  UNL1        0.0000
     13 C         138.4197  137.5000  165.6439 C.ar    1  UNL1        0.0002
     14 C         139.7260  138.0764  165.1844 C.ar    1  UNL1        0.0047
     15 N         140.9648  140.3117  164.1650 N.pl3   1  UNL1       -0.2374
     16 C         139.8948  141.3616  164.2196 C.ar    1  UNL1        0.0767
     17 C         140.1350  142.6390  164.9682 C.ar    1  UNL1        0.0183
     18 C         139.0651  143.6889  165.0228 C.ar    1  UNL1        0.0220
     19 C         137.7549  143.4613  164.3288 C.ar    1  UNL1        0.0990
     20 N         137.5147  142.1838  163.5801 N.ar    1  UNL1       -0.2410
     21 C         138.5846  141.1340  163.5255 C.ar    1  UNL1        0.1140
     22 C         141.3816  139.7335  162.8451 C.ar    1  UNL1        0.0767
     23 C         141.8666  140.6368  161.7503 C.ar    1  UNL1        0.0183
     24 C         142.2834  140.0587  160.4304 C.ar    1  UNL1        0.0220
     25 C         142.2151  138.5772  160.2054 C.ar    1  UNL1        0.0990
     26 N         141.7300  137.6739  161.3002 N.ar    1  UNL1       -0.2410
     27 C         141.3132  138.2521  162.6201 C.ar    1  UNL1        0.1140
@<TRIPOS>BOND
     1     1     2    2
     2     2     3    1
     3     3     4   ar
     4     4     5   ar
     5     5     6   ar
     6     6     7   ar
     7     7     8   ar
     8     2     9    1
     9     9    10   ar
    10    10    11   ar
    11    11    12   ar
    12    12    13   ar
    13    13    14   ar
    14     2    15    1
    15    15    16    1
    16    16    17   ar
    17    17    18   ar
    18    18    19   ar
    19    19    20   ar
    20    20    21   ar
    21    15    22    1
    22    22    23   ar
    23    23    24   ar
    24    24    25   ar
    25    25    26   ar
    26    26    27   ar
    27     8     3   ar
    28    14     9   ar
    29    21    16   ar
    30    27    22   ar
@<TRIPOS>MOLECULE
*****
 27 30 0 0 0
SMALL
GASTEIGER

@<TRIPOS>ATOM
      1 O         142.2818  139.3822  166.6687 O.2     1  UNL1       -0.2900
      2 P         141.6270  139.8538  165.4043 P.3     1  UNL1        0.2302
      3 C         140.3254  139.2618  165.8576 C.ar    1  UNL1        0.0500
      4 C         139.5855  139.8715  167.0112 C.ar    1  UNL1        0.0047
      5 C         138.2839  139.2796  167.4644 C.ar    1  UNL1        0.0002
      6 C         137.7223  138.0778  166.7642 C.ar    1  UNL1        0.0000
      7 C         138.4622  137.4681  165.6106 C.ar    1  UNL1        0.0002
      8 C         139.7637  138.0601  165.1573 C.ar    1  UNL1        0.0047
      9 C         142.9285  140.4457  164.9510 C.ar    1  UNL1        0.0500
     10 C         144.0290  139.5517  164.4614 C.ar    1  UNL1        0.0047
     11 C         145.3306  140.1437  164.0081 C.ar    1  UNL1        0.0002
     12 C         145.5317  141.6297  164.0445 C.ar    1  UNL1        0.0000
     13 C         144.4313  142.5237  164.5342 C.ar    1  UNL1        0.0002
     14 C         143.1297  141.9318  164.9874 C.ar    1  UNL1        0.0047
     15 N         140.9722  140.3254  164.1399 N.pl3   1  UNL1       -0.2374
     16 C         139.8985  141.3714  164.1963 C.ar    1  UNL1        0.0767
     17 C         140.1415  142.6567  164.9302 C.ar    1  UNL1        0.0183
     18 C         139.0678  143.7027  164.9866 C.ar    1  UNL1        0.0220
     19 C         137.7512  143.4633  164.3091 C.ar    1  UNL1        0.0990
     20 N         137.5081  142.1778  163.5751 N.ar    1  UNL1       -0.2410
     21 C         138.5818  141.1319  163.5187 C.ar    1  UNL1        0.1140
     22 C         141.3910  139.7510  162.8190 C.ar    1  UNL1        0.0767
     23 C         141.8694  140.6583  161.7245 C.ar    1  UNL1        0.0183
     24 C         142.2883  140.0840  160.4036 C.ar    1  UNL1        0.0220
     25 C         142.2288  138.6024  160.1772 C.ar    1  UNL1        0.0990
     26 N         141.7504  137.6951  161.2717 N.ar    1  UNL1       -0.2410
     27 C         141.3315  138.2694  162.5926 C.ar    1  UNL1        0.1140
@<TRIPOS>BOND
     1     1     2    2
     2     2     3    1
     3     3     4   ar
     4     4     5   ar
     5     5     6   ar
     6     6     7   ar
     7     7     8   ar
     8     2     9    1
     9     9    10   ar
    10    10    11   ar
    11    11    12   ar
    12    12    13   ar
    13    13    14   ar
    14     2    15    1
    15    15    16    1
    16    16    17   ar
    17    17    18   ar
    18    18    19   ar
    19    19    20   ar
    20    20    21   ar
    21    15    22    1
    22    22    23   ar
    23    23    24   ar
    24    24    25   ar
    25    25    26   ar
    26    26    27   ar
    27     8     3   ar
    28    14     9   ar
    29    21    16   ar
    30    27    22   ar
@<TRIPOS>MOLECULE
*****
 27 30 0 0 0
SMALL
GASTEIGER

@<TRIPOS>ATOM
      1 O         142.2859  139.3655  166.6728 O.2     1  UNL1       -0.2900
      2 P         141.6312  139.8417  165.4101 P.3     1  UNL1        0.2302
      3 C         140.3282  139.2529  165.8638 C.ar    1  UNL1        0.0500
      4 C         139.7652  138.0504  165.1661 C.ar    1  UNL1        0.0047
      5 C         138.4623  137.4617  165.6198 C.ar    1  UNL1        0.0002
      6 C         137.7224  138.0756  166.7712 C.ar    1  UNL1        0.0000
      7 C         138.2854  139.2781  167.4689 C.ar    1  UNL1        0.0002
      8 C         139.5883  139.8668  167.0152 C.ar    1  UNL1        0.0047
      9 C         142.9341  140.4304  164.9565 C.ar    1  UNL1        0.0500
     10 C         143.1382  141.9161  164.9909 C.ar    1  UNL1        0.0047
     11 C         144.4412  142.5048  164.5373 C.ar    1  UNL1        0.0002
     12 C         145.5400  141.6078  164.0493 C.ar    1  UNL1        0.0000
     13 C         145.3358  140.1222  164.0149 C.ar    1  UNL1        0.0002
     14 C         144.0329  139.5335  164.4685 C.ar    1  UNL1        0.0047
     15 N         140.9764  140.3180  164.1475 N.pl3   1  UNL1       -0.2374
     16 C         141.3956  139.7489  162.8245 C.ar    1  UNL1        0.0767
     17 C         141.8782  140.6601  161.7351 C.ar    1  UNL1        0.0183
     18 C         142.2974  140.0910  160.4121 C.ar    1  UNL1        0.0220
     19 C         142.2341  138.6107  160.1784 C.ar    1  UNL1        0.0990
     20 N         141.7515  137.6994  161.2678 N.ar    1  UNL1       -0.2410
     21 C         141.3323  138.2685  162.5908 C.ar    1  UNL1        0.1140
     22 C         139.9023  141.3634  164.2078 C.ar    1  UNL1        0.0767
     23 C         140.1405  142.6411  164.9566 C.ar    1  UNL1        0.0183
     24 C         139.0665  143.6864  165.0169 C.ar    1  UNL1        0.0220
     25 C         137.7542  143.4541  164.3284 C.ar    1  UNL1        0.0990
     26 N         137.5160  142.1764  163.5796 N.ar    1  UNL1       -0.2410
     27 C         138.5901  141.1310  163.5193 C.ar    1  UNL1        0.1140
@<TRIPOS>BOND
     1     1     2    2
     2     2     3    1
     3     3     4   ar
     4     4     5   ar
     5     5     6   ar
     6     6     7   ar
     7     7     8   ar
     8     2     9    1
     9     9    10   ar
    10    10    11   ar
    11    11    12   ar
    12    12    13   ar
    13    13    14   ar
    14     2    15    1
    15    15    16    1
    16    16    17   ar
    17    17    18   ar
    18    18    19   ar
    19    19    20   ar
    20    20    21   ar
    21    15    22    1
    22    22    23   ar
    23    23    24   ar
    24    24    25   ar
    25    25    26   ar
    26    26    27   ar
    27     8     3   ar
    28    14     9   ar
    29    21    16   ar
    30    27    22   ar
@<TRIPOS>MOLECULE
*****
 27 30 0 0 0
SMALL
GASTEIGER

@<TRIPOS>ATOM
      1 O         142.3873  139.5332  166.6848 O.2     1  UNL1       -0.2900
      2 P         141.7218  140.0690  165.4519 P.3     1  UNL1        0.2302
      3 C         143.0249  140.6639  165.0070 C.ar    1  UNL1        0.0500
      4 C         144.1086  139.7780  164.4678 C.ar    1  UNL1        0.0047
      5 C         145.4116  140.3730  164.0229 C.ar    1  UNL1        0.0002
      6 C         145.6311  141.8538  164.1173 C.ar    1  UNL1        0.0000
      7 C         144.5474  142.7397  164.6566 C.ar    1  UNL1        0.0002
      8 C         143.2444  142.1448  165.1014 C.ar    1  UNL1        0.0047
      9 C         140.4187  139.4740  165.8969 C.ar    1  UNL1        0.0500
     10 C         139.8139  138.3349  165.1309 C.ar    1  UNL1        0.0047
     11 C         138.5108  137.7400  165.5759 C.ar    1  UNL1        0.0002
     12 C         137.8125  138.2841  166.7868 C.ar    1  UNL1        0.0000
     13 C         138.4172  139.4233  167.5527 C.ar    1  UNL1        0.0002
     14 C         139.7203  140.0182  167.1078 C.ar    1  UNL1        0.0047
     15 N         141.0562  140.6047  164.2191 N.pl3   1  UNL1       -0.2374
     16 C         141.4579  140.0931  162.8674 C.ar    1  UNL1        0.0767
     17 C         141.4463  138.6192  162.5895 C.ar    1  UNL1        0.0183
     18 C         141.8480  138.1077  161.2378 C.ar    1  UNL1        0.0220
     19 C         142.2614  139.0701  160.1641 C.ar    1  UNL1        0.0990
     20 N         142.2730  140.5441  160.4421 N.ar    1  UNL1       -0.2410
     21 C         141.8713  141.0556  161.7937 C.ar    1  UNL1        0.1140
     22 C         139.9889  141.6520  164.3378 C.ar    1  UNL1        0.0767
     23 C         140.2364  142.8859  165.1541 C.ar    1  UNL1        0.0183
     24 C         139.1692  143.9332  165.2728 C.ar    1  UNL1        0.0220
     25 C         137.8543  143.7466  164.5753 C.ar    1  UNL1        0.0990
     26 N         137.6068  142.5127  163.7590 N.ar    1  UNL1       -0.2410
     27 C         138.6741  141.4654  163.6403 C.ar    1  UNL1        0.1140
@<TRIPOS>BOND
     1     1     2    2
     2     2     3    1
     3     3     4   ar
     4     4     5   ar
     5     5     6   ar
     6     6     7   ar
     7     7     8   ar
     8     2     9    1
     9     9    10   ar
    10    10    11   ar
    11    11    12   ar
    12    12    13   ar
    13    13    14   ar
    14     2    15    1
    15    15    16    1
    16    16    17   ar
    17    17    18   ar
    18    18    19   ar
    19    19    20   ar
    20    20    21   ar
    21    15    22    1
    22    22    23   ar
    23    23    24   ar
    24    24    25   ar
    25    25    26   ar
    26    26    27   ar
    27     8     3   ar
    28    14     9   ar
    29    21    16   ar
    30    27    22   ar
@<TRIPOS>MOLECULE
*****
 27 30 0 0 0
SMALL
GASTEIGER

@<TRIPOS>ATOM
      1 O         142.4244  139.5672  166.6715 O.2     1  UNL1       -0.2900
      2 P         141.7419  140.1379  165.4638 P.3     1  UNL1        0.2302
      3 C         143.0468  140.7125  164.9979 C.ar    1  UNL1        0.0500
      4 C         143.3033  142.1854  165.1182 C.ar    1  UNL1        0.0047
      5 C         144.6082  142.7600  164.6523 C.ar    1  UNL1        0.0002
      6 C         145.6566  141.8615  164.0661 C.ar    1  UNL1        0.0000
      7 C         145.4001  140.3886  163.9458 C.ar    1  UNL1        0.0002
      8 C         144.0952  139.8140  164.4117 C.ar    1  UNL1        0.0047
      9 C         140.4370  139.5633  165.9297 C.ar    1  UNL1        0.0500
     10 C         139.7695  140.1145  167.1546 C.ar    1  UNL1        0.0047
     11 C         138.4645  139.5399  167.6205 C.ar    1  UNL1        0.0002
     12 C         137.8272  138.4140  166.8615 C.ar    1  UNL1        0.0000
     13 C         138.4947  137.8627  165.6366 C.ar    1  UNL1        0.0002
     14 C         139.7996  138.4373  165.1707 C.ar    1  UNL1        0.0047
     15 N         141.0594  140.7085  164.2561 N.pl3   1  UNL1       -0.2374
     16 C         141.4239  140.2173  162.8865 C.ar    1  UNL1        0.0767
     17 C         141.8651  141.1902  161.8336 C.ar    1  UNL1        0.0183
     18 C         142.2296  140.6990  160.4640 C.ar    1  UNL1        0.0220
     19 C         142.1528  139.2349  160.1472 C.ar    1  UNL1        0.0990
     20 N         141.7115  138.2618  161.2002 N.ar    1  UNL1       -0.2410
     21 C         141.3470  138.7530  162.5698 C.ar    1  UNL1        0.1140
     22 C         140.0123  141.7704  164.4180 C.ar    1  UNL1        0.0767
     23 C         138.6397  141.5631  163.8497 C.ar    1  UNL1        0.0183
     24 C         137.5927  142.6249  164.0115 C.ar    1  UNL1        0.0220
     25 C         137.9182  143.8941  164.7418 C.ar    1  UNL1        0.0990
     26 N         139.2908  144.1014  165.3101 N.ar    1  UNL1       -0.2410
     27 C         140.3379  143.0395  165.1482 C.ar    1  UNL1        0.1140
@<TRIPOS>BOND
     1     1     2    2
     2     2     3    1
     3     3     4   ar
     4     4     5   ar
     5     5     6   ar
     6     6     7   ar
     7     7     8   ar
     8     2     9    1
     9     9    10   ar
    10    10    11   ar
    11    11    12   ar
    12    12    13   ar
    13    13    14   ar
    14     2    15    1
    15    15    16    1
    16    16    17   ar
    17    17    18   ar
    18    18    19   ar
    19    19    20   ar
    20    20    21   ar
    21    15    22    1
    22    22    23   ar
    23    23    24   ar
    24    24    25   ar
    25    25    26   ar
    26    26    27   ar
    27     8     3   ar
    28    14     9   ar
    29    21    16   ar
    30    27    22   ar
