@<TRIPOS>MOLECULE
*****
 32 36 0 0 0
SMALL
GASTEIGER

@<TRIPOS>ATOM
      1 C         140.6416  137.6349  163.9216 C.3     1  UNL1        0.0545
      2 C         139.2058  137.5451  164.3466 C.3     1  UNL1        0.0162
      3 C         139.0430  138.3492  165.6023 C.3     1  UNL1        0.0095
      4 C         138.0550  138.7907  166.6411 C.3     1  UNL1        0.0005
      5 C         138.7795  139.6503  167.6342 C.3     1  UNL1        0.0005
      6 C         140.2152  139.7401  167.2092 C.3     1  UNL1        0.0087
      7 C         140.3781  138.9360  165.9535 C.3     1  UNL1        0.0704
      8 C         141.3660  138.4945  164.9147 C.3     1  UNL1        0.0243
      9 C         141.7131  139.5228  166.3045 C.2     1  UNL1        0.2250
     10 O         142.6508  138.7700  167.2013 O.2     1  UNL1       -0.2749
     11 N         142.1106  140.8624  165.7589 N.am    1  UNL1       -0.2751
     12 C         143.4456  141.4491  166.1099 C.3     1  UNL1        0.0984
     13 C         143.8430  142.7886  165.5643 C.3     1  UNL1        0.0476
     14 C         142.9053  143.5414  164.6676 C.ar    1  UNL1       -0.0228
     15 C         143.3027  144.8809  164.1219 C.ar    1  UNL1       -0.0038
     16 C         142.3651  145.6337  163.2252 C.ar    1  UNL1        0.0099
     17 C         141.0299  145.0469  162.8741 C.ar    1  UNL1        0.0682
     18 C         140.6326  143.7074  163.4198 C.ar    1  UNL1        0.0074
     19 C         141.5703  142.9546  164.3165 C.ar    1  UNL1       -0.0056
     20 C         141.1729  141.6151  164.8622 C.3     1  UNL1        0.1198
     21 C         140.0923  145.7996  161.9774 C.1     1  UNL1        0.1004
     22 N         139.1546  146.5524  161.0807 N.1     1  UNL1       -0.1908
     23 N         141.2466  136.9800  162.7153 N.3     1  UNL1       -0.2975
     24 H         141.9574  136.3331  163.0569 H       1  UNL1        0.1232
     25 C         141.0671  138.4176  160.5587 C.3     1  UNL1        0.1591
     26 C         141.7177  139.2550  159.4978 C.3     1  UNL1        0.1729
     27 O         143.1984  139.4923  159.5327 O.3     1  UNL1       -0.3511
     28 C         144.0285  138.8922  160.6285 C.3     1  UNL1        0.1437
     29 C         143.3780  138.0547  161.6894 C.3     1  UNL1        0.0503
     30 C         141.8972  137.8175  161.6544 C.3     1  UNL1        0.0865
     31 C         138.6439  139.2535  160.9819 C.3     1  UNL1        0.1742
     32 O         139.5865  138.1803  160.5238 O.3     1  UNL1       -0.3496
@<TRIPOS>BOND
     1    31    32    1
     2    32    25    1
     3    25    26    1
     4    26    27    1
     5    27    28    1
     6    28    29    1
     7    29    30    1
     8    30    23    1
     9     1    23    1
    10     1     2    1
    11     3     2    1
    12     3     4    1
    13     4     5    1
    14     5     6    1
    15     6     7    1
    16     7     9    1
    17     9    10    2
    18     9    11   am
    19    11    12    1
    20    12    13    1
    21    13    14    1
    22    14    15   ar
    23    15    16   ar
    24    16    17   ar
    25    17    21    1
    26    21    22    3
    27    17    18   ar
    28    18    19   ar
    29    19    20    1
    30     7     8    1
    31    30    25    1
    32     8     1    1
    33     7     3    1
    34    20    11    1
    35    19    14   ar
    36    23    24    1
@<TRIPOS>MOLECULE
*****
 32 36 0 0 0
SMALL
GASTEIGER

@<TRIPOS>ATOM
      1 C         141.2194  142.0567  161.9062 C.3     1  UNL1        0.0545
      2 C         140.9505  143.5162  161.6880 C.3     1  UNL1        0.0162
      3 C         139.6398  143.8481  162.3375 C.3     1  UNL1        0.0095
      4 C         138.6635  144.9552  162.6040 C.3     1  UNL1        0.0005
      5 C         137.5190  144.3852  163.3884 C.3     1  UNL1        0.0005
      6 C         137.7879  142.9257  163.6066 C.3     1  UNL1        0.0087
      7 C         139.0986  142.5938  162.9571 C.3     1  UNL1        0.0704
      8 C         140.0749  141.4867  162.6905 C.3     1  UNL1        0.0243
      9 C         138.5576  141.3395  163.5767 C.2     1  UNL1        0.2250
     10 O         137.6598  140.4376  162.7826 O.2     1  UNL1       -0.2749
     11 N         138.9143  140.9871  164.9905 N.am    1  UNL1       -0.2751
     12 C         138.3732  139.7328  165.6101 C.3     1  UNL1        0.0984
     13 C         138.7299  139.3804  167.0237 C.3     1  UNL1        0.0476
     14 C         139.6277  140.2823  167.8178 C.ar    1  UNL1       -0.0228
     15 C         139.9844  139.9298  169.2316 C.ar    1  UNL1       -0.0038
     16 C         140.8822  140.8318  170.0256 C.ar    1  UNL1        0.0099
     17 C         141.4233  142.0861  169.4060 C.ar    1  UNL1        0.0682
     18 C         141.0665  142.4385  167.9923 C.ar    1  UNL1        0.0074
     19 C         140.1688  141.5366  167.1982 C.ar    1  UNL1       -0.0056
     20 C         139.8121  141.8890  165.7845 C.3     1  UNL1        0.1198
     21 C         142.3210  142.9880  170.2000 C.1     1  UNL1        0.1004
     22 N         143.2188  143.8899  170.9941 N.1     1  UNL1       -0.1908
     23 N         142.4218  141.3001  161.4246 N.3     1  UNL1       -0.2975
     24 H         142.0794  140.4256  161.0266 H       1  UNL1        0.1232
     25 C         144.6081  141.9237  162.6820 C.3     1  UNL1        0.1591
     26 C         145.7018  141.5632  163.6432 C.3     1  UNL1        0.1729
     27 O         145.7030  140.2185  164.3079 O.3     1  UNL1       -0.3511
     28 C         144.6105  139.2343  164.0116 C.3     1  UNL1        0.1437
     29 C         143.5167  139.5949  163.0504 C.3     1  UNL1        0.0503
     30 C         143.5156  140.9396  162.3857 C.3     1  UNL1        0.0865
     31 C         144.1850  144.4850  162.7866 C.3     1  UNL1        0.1742
     32 O         144.6069  143.2683  162.0173 O.3     1  UNL1       -0.3496
@<TRIPOS>BOND
     1    31    32    1
     2    32    25    1
     3    25    26    1
     4    26    27    1
     5    27    28    1
     6    28    29    1
     7    29    30    1
     8    30    23    1
     9     1    23    1
    10     1     2    1
    11     3     2    1
    12     3     4    1
    13     4     5    1
    14     5     6    1
    15     6     7    1
    16     7     9    1
    17     9    10    2
    18     9    11   am
    19    11    12    1
    20    12    13    1
    21    13    14    1
    22    14    15   ar
    23    15    16   ar
    24    16    17   ar
    25    17    21    1
    26    21    22    3
    27    17    18   ar
    28    18    19   ar
    29    19    20    1
    30     7     8    1
    31    30    25    1
    32     8     1    1
    33     7     3    1
    34    20    11    1
    35    19    14   ar
    36    23    24    1
@<TRIPOS>MOLECULE
*****
 32 36 0 0 0
SMALL
GASTEIGER

@<TRIPOS>ATOM
      1 C         141.1382  141.8209  162.0248 C.3     1  UNL1        0.0545
      2 C         140.8912  143.2754  161.7543 C.3     1  UNL1        0.0162
      3 C         139.5892  143.6519  162.3971 C.3     1  UNL1        0.0095
      4 C         138.6318  144.7834  162.6271 C.3     1  UNL1        0.0005
      5 C         137.4825  144.2609  163.4371 C.3     1  UNL1        0.0005
      6 C         137.7295  142.8063  163.7076 C.3     1  UNL1        0.0087
      7 C         139.0315  142.4299  163.0649 C.3     1  UNL1        0.0704
      8 C         139.9888  141.2983  162.8348 C.3     1  UNL1        0.0243
      9 C         138.4738  141.2080  163.7326 C.2     1  UNL1        0.2250
     10 O         137.5411  140.3034  162.9831 O.2     1  UNL1       -0.2749
     11 N         138.8489  140.8906  165.1499 N.am    1  UNL1       -0.2751
     12 C         138.2913  139.6686  165.8176 C.3     1  UNL1        0.0984
     13 C         138.6664  139.3513  167.2348 C.3     1  UNL1        0.0476
     14 C         139.5991  140.2559  167.9843 C.ar    1  UNL1       -0.0228
     15 C         139.9742  139.9385  169.4016 C.ar    1  UNL1       -0.0038
     16 C         140.9070  140.8431  170.1511 C.ar    1  UNL1        0.0099
     17 C         141.4646  142.0651  169.4833 C.ar    1  UNL1        0.0682
     18 C         141.0895  142.3824  168.0661 C.ar    1  UNL1        0.0074
     19 C         140.1568  141.4778  167.3166 C.ar    1  UNL1       -0.0056
     20 C         139.7817  141.7952  165.8994 C.3     1  UNL1        0.1198
     21 C         142.3973  142.9696  170.2328 C.1     1  UNL1        0.1004
     22 N         143.3301  143.8742  170.9823 N.1     1  UNL1       -0.1908
     23 N         142.3260  141.0280  161.5660 N.3     1  UNL1       -0.2975
     24 H         141.9883  140.0901  161.3498 H       1  UNL1        0.1232
     25 C         143.6022  139.6755  163.3804 C.3     1  UNL1        0.1591
     26 C         144.7885  139.5112  164.2836 C.3     1  UNL1        0.1729
     27 O         145.8848  140.5348  164.2755 O.3     1  UNL1       -0.3511
     28 C         145.7949  141.7229  163.3643 C.3     1  UNL1        0.1437
     29 C         144.6087  141.8873  162.4611 C.3     1  UNL1        0.0503
     30 C         143.5123  140.8636  162.4692 C.3     1  UNL1        0.0865
     31 C         141.6732  138.4543  164.6205 C.3     1  UNL1        0.1742
     32 O         142.5059  138.6519  163.3885 O.3     1  UNL1       -0.3496
@<TRIPOS>BOND
     1    31    32    1
     2    32    25    1
     3    25    26    1
     4    26    27    1
     5    27    28    1
     6    28    29    1
     7    29    30    1
     8    30    23    1
     9     1    23    1
    10     1     2    1
    11     3     2    1
    12     3     4    1
    13     4     5    1
    14     5     6    1
    15     6     7    1
    16     7     9    1
    17     9    10    2
    18     9    11   am
    19    11    12    1
    20    12    13    1
    21    13    14    1
    22    14    15   ar
    23    15    16   ar
    24    16    17   ar
    25    17    21    1
    26    21    22    3
    27    17    18   ar
    28    18    19   ar
    29    19    20    1
    30     7     8    1
    31    30    25    1
    32     8     1    1
    33     7     3    1
    34    20    11    1
    35    19    14   ar
    36    23    24    1
@<TRIPOS>MOLECULE
*****
 32 36 0 0 0
SMALL
GASTEIGER

@<TRIPOS>ATOM
      1 C         142.1871  142.7742  162.7943 C.3     1  UNL1        0.0545
      2 C         143.6695  142.7934  163.0228 C.3     1  UNL1        0.0162
      3 C         144.1034  141.3996  163.3677 C.3     1  UNL1        0.0095
      4 C         145.2877  140.5500  163.7221 C.3     1  UNL1        0.0005
      5 C         144.8054  139.1443  163.9258 C.3     1  UNL1        0.0005
      6 C         143.3231  139.1251  163.6973 C.3     1  UNL1        0.0087
      7 C         142.8892  140.5189  163.3524 C.3     1  UNL1        0.0704
      8 C         141.7049  141.3685  162.9980 C.3     1  UNL1        0.0243
      9 C         141.6750  139.6383  163.3371 C.2     1  UNL1        0.2250
     10 O         141.3248  138.8652  162.1003 O.2     1  UNL1       -0.2749
     11 N         140.8109  139.5309  164.5585 N.am    1  UNL1       -0.2751
     12 C         139.5967  138.6503  164.5432 C.3     1  UNL1        0.0984
     13 C         138.7327  138.5430  165.7646 C.3     1  UNL1        0.0476
     14 C         139.0829  139.3161  167.0014 C.ar    1  UNL1       -0.0228
     15 C         138.2188  139.2087  168.2229 C.ar    1  UNL1       -0.0038
     16 C         138.5690  139.9819  169.4596 C.ar    1  UNL1        0.0099
     17 C         139.7833  140.8625  169.4749 C.ar    1  UNL1        0.0682
     18 C         140.6473  140.9699  168.2535 C.ar    1  UNL1        0.0074
     19 C         140.2971  140.1967  167.0167 C.ar    1  UNL1       -0.0056
     20 C         141.1611  140.3041  165.7953 C.3     1  UNL1        0.1198
     21 C         140.1335  141.6356  170.7117 C.1     1  UNL1        0.1004
     22 N         140.4837  142.4088  171.9484 N.1     1  UNL1       -0.1908
     23 N         141.3364  143.9537  162.4266 N.3     1  UNL1       -0.2975
     24 H         141.9065  144.7861  162.5762 H       1  UNL1        0.1232
     25 C         138.7390  144.0050  162.3986 C.3     1  UNL1        0.1591
     26 C         137.4366  144.2396  163.1049 C.3     1  UNL1        0.1729
     27 O         137.4293  144.6574  164.5455 O.3     1  UNL1       -0.3511
     28 C         138.7244  144.8406  165.2799 C.3     1  UNL1        0.1437
     29 C         140.0268  144.6060  164.5736 C.3     1  UNL1        0.0503
     30 C         140.0340  144.1882  163.1329 C.3     1  UNL1        0.0865
     31 C         138.5889  142.1401  160.5959 C.3     1  UNL1        0.1742
     32 O         138.7462  143.5873  160.9580 O.3     1  UNL1       -0.3496
@<TRIPOS>BOND
     1    31    32    1
     2    32    25    1
     3    25    26    1
     4    26    27    1
     5    27    28    1
     6    28    29    1
     7    29    30    1
     8    30    23    1
     9     1    23    1
    10     1     2    1
    11     3     2    1
    12     3     4    1
    13     4     5    1
    14     5     6    1
    15     6     7    1
    16     7     9    1
    17     9    10    2
    18     9    11   am
    19    11    12    1
    20    12    13    1
    21    13    14    1
    22    14    15   ar
    23    15    16   ar
    24    16    17   ar
    25    17    21    1
    26    21    22    3
    27    17    18   ar
    28    18    19   ar
    29    19    20    1
    30     7     8    1
    31    30    25    1
    32     8     1    1
    33     7     3    1
    34    20    11    1
    35    19    14   ar
    36    23    24    1
@<TRIPOS>MOLECULE
*****
 32 36 0 0 0
SMALL
GASTEIGER

@<TRIPOS>ATOM
      1 C         138.2253  142.1600  162.8052 C.3     1  UNL1        0.0545
      2 C         137.7259  143.5271  162.4422 C.3     1  UNL1        0.0162
      3 C         138.9157  144.4229  162.2633 C.3     1  UNL1        0.0095
      4 C         139.3423  145.8213  161.9284 C.3     1  UNL1        0.0005
      5 C         140.8408  145.8722  161.9737 C.3     1  UNL1        0.0005
      6 C         141.3402  144.5052  162.3366 C.3     1  UNL1        0.0087
      7 C         140.1505  143.6094  162.5156 C.3     1  UNL1        0.0704
      8 C         139.7238  142.2109  162.8505 C.3     1  UNL1        0.0243
      9 C         141.3852  142.7960  162.7679 C.2     1  UNL1        0.2250
     10 O         142.2462  142.3633  161.6184 O.2     1  UNL1       -0.2749
     11 N         141.7590  142.4152  164.1698 N.am    1  UNL1       -0.2751
     12 C         142.9938  141.6017  164.4222 C.3     1  UNL1        0.0984
     13 C         143.3675  141.2210  165.8240 C.3     1  UNL1        0.0476
     14 C         142.5065  141.6537  166.9736 C.ar    1  UNL1       -0.0228
     15 C         142.8803  141.2729  168.3755 C.ar    1  UNL1       -0.0038
     16 C         142.0193  141.7056  169.5251 C.ar    1  UNL1        0.0099
     17 C         140.7845  142.5190  169.2727 C.ar    1  UNL1        0.0682
     18 C         140.4108  142.8998  167.8708 C.ar    1  UNL1        0.0074
     19 C         141.2718  142.4671  166.7213 C.ar    1  UNL1       -0.0056
     20 C         140.8980  142.8479  165.3194 C.3     1  UNL1        0.1198
     21 C         139.9236  142.9517  170.4223 C.1     1  UNL1        0.1004
     22 N         139.0626  143.3844  171.5718 N.1     1  UNL1       -0.1908
     23 N         137.3755  140.9538  163.0753 N.3     1  UNL1       -0.2975
     24 H         136.5874  141.2695  163.6407 H       1  UNL1        0.1232
     25 C         138.3920  138.5645  162.9856 C.3     1  UNL1        0.1591
     26 C         138.9789  137.3753  163.6865 C.3     1  UNL1        0.1729
     27 O         139.1364  137.3863  165.1781 O.3     1  UNL1       -0.3511
     28 C         138.7069  138.5864  165.9689 C.3     1  UNL1        0.1437
     29 C         138.1200  139.7756  165.2680 C.3     1  UNL1        0.0503
     30 C         137.9625  139.7646  163.7763 C.3     1  UNL1        0.0865
     31 C         139.4457  138.6182  160.6113 C.3     1  UNL1        0.1742
     32 O         138.2345  138.5536  161.4939 O.3     1  UNL1       -0.3496
@<TRIPOS>BOND
     1    31    32    1
     2    32    25    1
     3    25    26    1
     4    26    27    1
     5    27    28    1
     6    28    29    1
     7    29    30    1
     8    30    23    1
     9     1    23    1
    10     1     2    1
    11     3     2    1
    12     3     4    1
    13     4     5    1
    14     5     6    1
    15     6     7    1
    16     7     9    1
    17     9    10    2
    18     9    11   am
    19    11    12    1
    20    12    13    1
    21    13    14    1
    22    14    15   ar
    23    15    16   ar
    24    16    17   ar
    25    17    21    1
    26    21    22    3
    27    17    18   ar
    28    18    19   ar
    29    19    20    1
    30     7     8    1
    31    30    25    1
    32     8     1    1
    33     7     3    1
    34    20    11    1
    35    19    14   ar
    36    23    24    1
@<TRIPOS>MOLECULE
*****
 32 36 0 0 0
SMALL
GASTEIGER

@<TRIPOS>ATOM
      1 C         139.4549  139.2837  166.5407 C.3     1  UNL1        0.0545
      2 C         139.0404  139.8289  167.8752 C.3     1  UNL1        0.0162
      3 C         140.2815  140.2146  168.6241 C.3     1  UNL1        0.0095
      4 C         140.7925  140.7900  169.9117 C.3     1  UNL1        0.0005
      5 C         142.2898  140.8388  169.8357 C.3     1  UNL1        0.0005
      6 C         142.7042  140.2936  168.5012 C.3     1  UNL1        0.0087
      7 C         141.4631  139.9078  167.7524 C.3     1  UNL1        0.0704
      8 C         140.9522  139.3325  166.4648 C.3     1  UNL1        0.0243
      9 C         142.6446  139.6010  166.8807 C.2     1  UNL1        0.2250
     10 O         143.5636  138.4694  167.2340 O.2     1  UNL1       -0.2749
     11 N         142.9071  140.4259  165.6556 N.am    1  UNL1       -0.2751
     12 C         144.0886  140.1191  164.7838 C.3     1  UNL1        0.0984
     13 C         144.3510  140.9439  163.5588 C.3     1  UNL1        0.0476
     14 C         143.4320  142.0755  163.2055 C.ar    1  UNL1       -0.0228
     15 C         143.6945  142.9004  161.9804 C.ar    1  UNL1       -0.0038
     16 C         142.7755  144.0320  161.6271 C.ar    1  UNL1        0.0099
     17 C         141.5940  144.3388  162.4989 C.ar    1  UNL1        0.0682
     18 C         141.3315  143.5139  163.7239 C.ar    1  UNL1        0.0074
     19 C         142.2505  142.3823  164.0772 C.ar    1  UNL1       -0.0056
     20 C         141.9881  141.5575  165.3022 C.3     1  UNL1        0.1198
     21 C         140.6749  145.4704  162.1456 C.1     1  UNL1        0.1004
     22 N         139.7559  146.6020  161.7922 N.1     1  UNL1       -0.1908
     23 N         138.5337  138.7783  165.4700 N.3     1  UNL1       -0.2975
     24 H         138.8741  137.8554  165.2003 H       1  UNL1        0.1232
     25 C         138.7345  138.9528  162.8856 C.3     1  UNL1        0.1591
     26 C         138.5562  139.7358  161.6187 C.3     1  UNL1        0.1729
     27 O         137.9989  141.1275  161.6693 O.3     1  UNL1       -0.3511
     28 C         137.6198  141.7362  162.9869 C.3     1  UNL1        0.1437
     29 C         137.7981  140.9531  164.2538 C.3     1  UNL1        0.0503
     30 C         138.3554  139.5614  164.2031 C.3     1  UNL1        0.0865
     31 C         140.7456  137.3246  163.1189 C.3     1  UNL1        0.1742
     32 O         139.2918  137.5611  162.8350 O.3     1  UNL1       -0.3496
@<TRIPOS>BOND
     1    31    32    1
     2    32    25    1
     3    25    26    1
     4    26    27    1
     5    27    28    1
     6    28    29    1
     7    29    30    1
     8    30    23    1
     9     1    23    1
    10     1     2    1
    11     3     2    1
    12     3     4    1
    13     4     5    1
    14     5     6    1
    15     6     7    1
    16     7     9    1
    17     9    10    2
    18     9    11   am
    19    11    12    1
    20    12    13    1
    21    13    14    1
    22    14    15   ar
    23    15    16   ar
    24    16    17   ar
    25    17    21    1
    26    21    22    3
    27    17    18   ar
    28    18    19   ar
    29    19    20    1
    30     7     8    1
    31    30    25    1
    32     8     1    1
    33     7     3    1
    34    20    11    1
    35    19    14   ar
    36    23    24    1
@<TRIPOS>MOLECULE
*****
 32 36 0 0 0
SMALL
GASTEIGER

@<TRIPOS>ATOM
      1 C         140.0546  142.1343  161.0433 C.3     1  UNL1        0.0545
      2 C         138.5944  141.8245  160.8960 C.3     1  UNL1        0.0162
      3 C         138.3910  140.3776  161.2354 C.3     1  UNL1        0.0095
      4 C         137.3629  139.2918  161.3541 C.3     1  UNL1        0.0005
      5 C         138.0620  138.0364  161.7845 C.3     1  UNL1        0.0005
      6 C         139.5222  138.3463  161.9318 C.3     1  UNL1        0.0087
      7 C         139.7256  139.7932  161.5925 C.3     1  UNL1        0.0704
      8 C         140.7537  140.8789  161.4738 C.3     1  UNL1        0.0243
      9 C         141.0601  139.2088  161.9495 C.2     1  UNL1        0.2250
     10 O         141.9398  138.6375  160.8772 O.2     1  UNL1       -0.2749
     11 N         141.5150  139.1958  163.3789 N.am    1  UNL1       -0.2751
     12 C         142.8495  138.6114  163.7359 C.3     1  UNL1        0.0984
     13 C         143.3044  138.5984  165.1652 C.3     1  UNL1        0.0476
     14 C         142.4247  139.1697  166.2374 C.ar    1  UNL1       -0.0228
     15 C         142.8795  139.1566  167.6668 C.ar    1  UNL1       -0.0038
     16 C         141.9998  139.7279  168.7391 C.ar    1  UNL1        0.0099
     17 C         140.6652  140.3122  168.3820 C.ar    1  UNL1        0.0682
     18 C         140.2104  140.3253  166.9527 C.ar    1  UNL1        0.0074
     19 C         141.0901  139.7540  165.8804 C.ar    1  UNL1       -0.0056
     20 C         140.6353  139.7670  164.4511 C.3     1  UNL1        0.1198
     21 C         139.7855  140.8835  169.4542 C.1     1  UNL1        0.1004
     22 N         138.9058  141.4548  170.5265 N.1     1  UNL1       -0.1908
     23 N         140.7021  143.4658  160.8025 N.3     1  UNL1       -0.2975
     24 H         141.1855  143.4004  159.9067 H       1  UNL1        0.1232
     25 C         141.2252  144.8768  162.9204 C.3     1  UNL1        0.1591
     26 C         142.2153  145.4189  163.9083 C.3     1  UNL1        0.1729
     27 O         143.6723  145.0922  163.7661 O.3     1  UNL1       -0.3511
     28 C         144.1393  144.2233  162.6360 C.3     1  UNL1        0.1437
     29 C         143.1493  143.6812  161.6481 C.3     1  UNL1        0.0503
     30 C         141.6922  144.0079  161.7904 C.3     1  UNL1        0.0865
     31 C         139.0217  144.7824  164.2937 C.3     1  UNL1        0.1742
     32 O         139.7682  145.2035  163.0626 O.3     1  UNL1       -0.3496
@<TRIPOS>BOND
     1    31    32    1
     2    32    25    1
     3    25    26    1
     4    26    27    1
     5    27    28    1
     6    28    29    1
     7    29    30    1
     8    30    23    1
     9     1    23    1
    10     1     2    1
    11     3     2    1
    12     3     4    1
    13     4     5    1
    14     5     6    1
    15     6     7    1
    16     7     9    1
    17     9    10    2
    18     9    11   am
    19    11    12    1
    20    12    13    1
    21    13    14    1
    22    14    15   ar
    23    15    16   ar
    24    16    17   ar
    25    17    21    1
    26    21    22    3
    27    17    18   ar
    28    18    19   ar
    29    19    20    1
    30     7     8    1
    31    30    25    1
    32     8     1    1
    33     7     3    1
    34    20    11    1
    35    19    14   ar
    36    23    24    1
@<TRIPOS>MOLECULE
*****
 32 36 0 0 0
SMALL
GASTEIGER

@<TRIPOS>ATOM
      1 C         142.9059  143.6923  161.8813 C.3     1  UNL1        0.0545
      2 C         144.2776  143.8463  162.4683 C.3     1  UNL1        0.0162
      3 C         144.6481  142.5506  163.1269 C.3     1  UNL1        0.0095
      4 C         145.7248  141.8450  163.8968 C.3     1  UNL1        0.0005
      5 C         145.2475  140.4541  164.1927 C.3     1  UNL1        0.0005
      6 C         143.8758  140.3000  163.6057 C.3     1  UNL1        0.0087
      7 C         143.5053  141.5957  162.9470 C.3     1  UNL1        0.0704
      8 C         142.4285  142.3014  162.1772 C.3     1  UNL1        0.0243
      9 C         142.3625  140.6410  162.7671 C.2     1  UNL1        0.2250
     10 O         142.1190  140.0060  161.4301 O.2     1  UNL1       -0.2749
     11 N         141.4631  140.3211  163.9242 N.am    1  UNL1       -0.2751
     12 C         140.3204  139.3663  163.7443 C.3     1  UNL1        0.0984
     13 C         139.4210  139.0464  164.9014 C.3     1  UNL1        0.0476
     14 C         139.6645  139.6814  166.2384 C.ar    1  UNL1       -0.0228
     15 C         138.7651  139.3615  167.3955 C.ar    1  UNL1       -0.0038
     16 C         139.0086  139.9964  168.7325 C.ar    1  UNL1        0.0099
     17 C         140.1514  140.9512  168.9124 C.ar    1  UNL1        0.0682
     18 C         141.0507  141.2711  167.7553 C.ar    1  UNL1        0.0074
     19 C         140.8073  140.6362  166.4183 C.ar    1  UNL1       -0.0056
     20 C         141.7066  140.9560  165.2612 C.3     1  UNL1        0.1198
     21 C         140.3949  141.5862  170.2494 C.1     1  UNL1        0.1004
     22 N         140.6384  142.2211  171.5864 N.1     1  UNL1       -0.1908
     23 N         142.1449  144.7445  161.1302 N.3     1  UNL1       -0.2975
     24 H         141.4107  145.0788  161.7543 H       1  UNL1        0.1232
     25 C         140.0343  144.0230  159.7981 C.3     1  UNL1        0.1591
     26 C         139.3737  143.6841  158.4947 C.3     1  UNL1        0.1729
     27 O         140.1632  143.7278  157.2201 O.3     1  UNL1       -0.3511
     28 C         141.6134  144.1104  157.2488 C.3     1  UNL1        0.1437
     29 C         142.2740  144.4493  158.5521 C.3     1  UNL1        0.0503
     30 C         141.4844  144.4056  159.8268 C.3     1  UNL1        0.0865
     31 C         138.4021  142.7802  161.3922 C.3     1  UNL1        0.1742
     32 O         139.2448  143.9793  161.0727 O.3     1  UNL1       -0.3496
@<TRIPOS>BOND
     1    31    32    1
     2    32    25    1
     3    25    26    1
     4    26    27    1
     5    27    28    1
     6    28    29    1
     7    29    30    1
     8    30    23    1
     9     1    23    1
    10     1     2    1
    11     3     2    1
    12     3     4    1
    13     4     5    1
    14     5     6    1
    15     6     7    1
    16     7     9    1
    17     9    10    2
    18     9    11   am
    19    11    12    1
    20    12    13    1
    21    13    14    1
    22    14    15   ar
    23    15    16   ar
    24    16    17   ar
    25    17    21    1
    26    21    22    3
    27    17    18   ar
    28    18    19   ar
    29    19    20    1
    30     7     8    1
    31    30    25    1
    32     8     1    1
    33     7     3    1
    34    20    11    1
    35    19    14   ar
    36    23    24    1
@<TRIPOS>MOLECULE
*****
 32 36 0 0 0
SMALL
GASTEIGER

@<TRIPOS>ATOM
      1 C         143.0911  142.5459  160.0433 C.3     1  UNL1        0.0545
      2 C         141.8124  143.1012  159.4896 C.3     1  UNL1        0.0162
      3 C         141.2719  144.0930  160.4765 C.3     1  UNL1        0.0095
      4 C         140.1477  145.0492  160.7443 C.3     1  UNL1        0.0005
      5 C         140.3975  145.6978  162.0736 C.3     1  UNL1        0.0005
      6 C         141.6761  145.1426  162.6273 C.3     1  UNL1        0.0087
      7 C         142.2166  144.1507  161.6403 C.3     1  UNL1        0.0704
      8 C         143.3409  143.1946  161.3726 C.3     1  UNL1        0.0243
      9 C         143.1613  144.2084  162.8041 C.2     1  UNL1        0.2250
     10 O         144.3824  145.0769  162.7365 O.2     1  UNL1       -0.2749
     11 N         142.8848  143.3976  164.0354 N.am    1  UNL1       -0.2751
     12 C         143.8294  143.4553  165.1992 C.3     1  UNL1        0.0984
     13 C         143.5529  142.6445  166.4305 C.3     1  UNL1        0.0476
     14 C         142.3318  141.7761  166.4980 C.ar    1  UNL1       -0.0228
     15 C         142.0553  140.9653  167.7294 C.ar    1  UNL1       -0.0038
     16 C         140.8342  140.0968  167.7970 C.ar    1  UNL1        0.0099
     17 C         139.8895  140.0391  166.6332 C.ar    1  UNL1        0.0682
     18 C         140.1660  140.8499  165.4019 C.ar    1  UNL1        0.0074
     19 C         141.3871  141.7184  165.3343 C.ar    1  UNL1       -0.0056
     20 C         141.6636  142.5292  164.1030 C.3     1  UNL1        0.1198
     21 C         138.6684  139.1706  166.7008 C.1     1  UNL1        0.1004
     22 N         137.4472  138.3022  166.7684 N.1     1  UNL1       -0.1908
     23 N         143.9664  141.5218  159.3836 N.3     1  UNL1       -0.2975
     24 H         143.9558  141.7252  158.3842 H       1  UNL1        0.1232
     25 C         144.0332  139.3383  160.7901 C.3     1  UNL1        0.1591
     26 C         143.7220  137.8785  160.9382 C.3     1  UNL1        0.1729
     27 O         143.0326  137.1422  159.8279 O.3     1  UNL1       -0.3511
     28 C         142.6545  137.8658  158.5695 C.3     1  UNL1        0.1437
     29 C         142.9658  139.3256  158.4214 C.3     1  UNL1        0.0503
     30 C         143.6551  140.0619  159.5317 C.3     1  UNL1        0.0865
     31 C         144.1591  140.0347  163.2899 C.3     1  UNL1        0.1742
     32 O         144.7225  140.0746  161.9003 O.3     1  UNL1       -0.3496
@<TRIPOS>BOND
     1    31    32    1
     2    32    25    1
     3    25    26    1
     4    26    27    1
     5    27    28    1
     6    28    29    1
     7    29    30    1
     8    30    23    1
     9     1    23    1
    10     1     2    1
    11     3     2    1
    12     3     4    1
    13     4     5    1
    14     5     6    1
    15     6     7    1
    16     7     9    1
    17     9    10    2
    18     9    11   am
    19    11    12    1
    20    12    13    1
    21    13    14    1
    22    14    15   ar
    23    15    16   ar
    24    16    17   ar
    25    17    21    1
    26    21    22    3
    27    17    18   ar
    28    18    19   ar
    29    19    20    1
    30     7     8    1
    31    30    25    1
    32     8     1    1
    33     7     3    1
    34    20    11    1
    35    19    14   ar
    36    23    24    1
