@<TRIPOS>MOLECULE
*****
 32 35 0 0 0
SMALL
GASTEIGER

@<TRIPOS>ATOM
      1 N         143.4219  138.5430  167.2531 N.pl3   1  UNL1       -0.2820
      2 H         143.9877  137.8878  167.7219 H       1  UNL1        0.1551
      3 C         142.2131  138.0226  163.5090 C.ar    1  UNL1        0.0491
      4 C         142.2367  137.9890  165.0084 C.ar    1  UNL1        0.0487
      5 C         143.3983  138.5767  165.7536 C.ar    1  UNL1        0.1345
      6 N         144.5363  139.1980  164.9994 N.ar    1  UNL1       -0.2290
      7 C         144.5127  139.2316  163.5000 C.ar    1  UNL1        0.1016
      8 C         143.3511  138.6439  162.7548 C.ar    1  UNL1        0.0354
      9 C         143.3275  138.6776  161.2553 C.ar    1  UNL1        0.0423
     10 C         143.7781  139.8184  160.3918 C.ar    1  UNL1        0.1217
     11 N         143.5783  139.4222  158.9590 N.ar    1  UNL1       -0.1676
     12 N         143.0042  138.0365  158.9369 N.ar    1  UNL1       -0.2473
     13 C         142.6477  137.2493  157.7108 C.3     1  UNL1        0.1538
     14 C         142.8492  137.5764  160.3561 C.ar    1  UNL1        0.0968
     15 C         139.6494  137.7256  163.2105 C.3     1  UNL1        0.1085
     16 N         141.0515  137.4350  162.7638 N.pl3   1  UNL1       -0.3312
     17 H         141.2094  136.8585  161.9815 H       1  UNL1        0.1469
     18 C         142.5833  139.5076  168.0382 C.ar    1  UNL1        0.1558
     19 C         142.3374  139.2712  169.4989 C.ar    1  UNL1        0.1342
     20 N         141.4988  140.2357  170.2840 N.ar    1  UNL1       -0.2263
     21 C         140.9061  141.4367  169.6084 C.ar    1  UNL1        0.2025
     22 C         141.1520  141.6731  168.1477 C.ar    1  UNL1        0.2543
     23 N         141.9906  140.7085  167.3626 N.ar    1  UNL1       -0.1931
     24 C         140.0675  142.4013  170.3934 C.1     1  UNL1        0.1246
     25 N         139.2289  143.3659  171.1785 N.1     1  UNL1       -0.1891
     26 O         140.5593  142.8741  167.4720 O.3     1  UNL1       -0.4610
     27 C         140.0525  142.7687  166.0642 C.3     1  UNL1        0.1849
     28 C         140.3568  143.7188  164.9441 C.3     1  UNL1        0.0623
     29 C         139.6447  143.2320  163.7169 C.3     1  UNL1        0.0760
     30 N         138.9002  141.9809  164.0787 N.3     1  UNL1       -0.2684
     31 C         138.0526  141.1603  163.1523 C.3     1  UNL1        0.0897
     32 C         139.1523  141.6946  165.5294 C.3     1  UNL1        0.1163
@<TRIPOS>BOND
     1    15    16    1
     2    16     3    1
     3     3     4   ar
     4     4     5   ar
     5     5     1    1
     6     1    18    1
     7    18    19   ar
     8    19    20   ar
     9    20    21   ar
    10    21    24    1
    11    24    25    3
    12    21    22   ar
    13    22    26    1
    14    27    26    1
    15    27    28    1
    16    28    29    1
    17    29    30    1
    18    30    31    1
    19    30    32    1
    20    22    23   ar
    21     5     6   ar
    22     6     7   ar
    23     7     8   ar
    24     8     9    1
    25     9    10   ar
    26    10    11   ar
    27    11    12   ar
    28    12    13    1
    29    12    14   ar
    30     8     3   ar
    31    14     9   ar
    32    23    18   ar
    33    32    27    1
    34    16    17    1
    35     1     2    1
@<TRIPOS>MOLECULE
*****
 32 35 0 0 0
SMALL
GASTEIGER

@<TRIPOS>ATOM
      1 N         143.3330  138.6835  167.1746 N.pl3   1  UNL1       -0.2820
      2 H         143.9815  138.0908  167.6189 H       1  UNL1        0.1551
      3 C         143.9636  139.3883  163.3203 C.ar    1  UNL1        0.0491
      4 C         144.1164  139.4279  164.8119 C.ar    1  UNL1        0.0487
      5 C         143.1801  138.6439  165.6829 C.ar    1  UNL1        0.1345
      6 N         142.0910  137.8202  165.0623 N.ar    1  UNL1       -0.2290
      7 C         141.9381  137.7806  163.5706 C.ar    1  UNL1        0.1016
      8 C         142.8744  138.5646  162.6996 C.ar    1  UNL1        0.0354
      9 C         142.7215  138.5249  161.2079 C.ar    1  UNL1        0.0423
     10 C         143.2869  137.4811  160.2911 C.ar    1  UNL1        0.1217
     11 N         142.8912  137.8332  158.8878 N.ar    1  UNL1       -0.1676
     12 N         142.0811  139.0947  158.9372 N.ar    1  UNL1       -0.2473
     13 C         141.4813  139.8042  157.7596 C.3     1  UNL1        0.1538
     14 C         141.9763  139.5222  160.3712 C.ar    1  UNL1        0.0968
     15 C         145.3134  141.5576  162.8492 C.3     1  UNL1        0.1085
     16 N         144.8999  140.1723  162.4493 N.pl3   1  UNL1       -0.3312
     17 H         145.2430  139.7777  161.6152 H       1  UNL1        0.1469
     18 C         142.4978  139.6262  167.9893 C.ar    1  UNL1        0.1558
     19 C         142.3256  139.3949  169.4614 C.ar    1  UNL1        0.1342
     20 N         141.4905  140.3376  170.2761 N.ar    1  UNL1       -0.2263
     21 C         140.8275  141.5117  169.6187 C.ar    1  UNL1        0.2025
     22 C         140.9997  141.7430  168.1468 C.ar    1  UNL1        0.2543
     23 N         141.8349  140.8003  167.3321 N.ar    1  UNL1       -0.1931
     24 C         139.9923  142.4544  170.4335 C.1     1  UNL1        0.1246
     25 N         139.1571  143.3971  171.2482 N.1     1  UNL1       -0.1891
     26 O         140.3367  142.9171  167.4894 O.3     1  UNL1       -0.4610
     27 C         140.1865  142.9552  165.9975 C.3     1  UNL1        0.1849
     28 C         141.1866  143.5057  165.0244 C.3     1  UNL1        0.0623
     29 C         140.6281  143.3402  163.6422 C.3     1  UNL1        0.0760
     30 N         139.2828  142.6874  163.7609 N.3     1  UNL1       -0.2684
     31 C         138.3706  142.3346  162.6237 C.3     1  UNL1        0.0897
     32 C         139.0099  142.4495  165.2166 C.3     1  UNL1        0.1163
@<TRIPOS>BOND
     1    15    16    1
     2    16     3    1
     3     3     4   ar
     4     4     5   ar
     5     5     1    1
     6     1    18    1
     7    18    19   ar
     8    19    20   ar
     9    20    21   ar
    10    21    24    1
    11    24    25    3
    12    21    22   ar
    13    22    26    1
    14    27    26    1
    15    27    28    1
    16    28    29    1
    17    29    30    1
    18    30    31    1
    19    30    32    1
    20    22    23   ar
    21     5     6   ar
    22     6     7   ar
    23     7     8   ar
    24     8     9    1
    25     9    10   ar
    26    10    11   ar
    27    11    12   ar
    28    12    13    1
    29    12    14   ar
    30     8     3   ar
    31    14     9   ar
    32    23    18   ar
    33    32    27    1
    34    16    17    1
    35     1     2    1
@<TRIPOS>MOLECULE
*****
 32 35 0 0 0
SMALL
GASTEIGER

@<TRIPOS>ATOM
      1 N         138.6405  138.0535  163.7309 N.pl3   1  UNL1       -0.2820
      2 H         138.1847  137.1845  163.8104 H       1  UNL1        0.1551
      3 C         141.8306  138.8635  165.9484 C.ar    1  UNL1        0.0491
      4 C         140.9785  138.3577  164.8223 C.ar    1  UNL1        0.0487
      5 C         139.4925  138.5593  164.8571 C.ar    1  UNL1        0.1345
      6 N         138.8586  139.2667  166.0180 N.ar    1  UNL1       -0.2290
      7 C         139.7107  139.7724  167.1441 C.ar    1  UNL1        0.1016
      8 C         141.1967  139.5709  167.1093 C.ar    1  UNL1        0.0354
      9 C         142.0488  140.0767  168.2355 C.ar    1  UNL1        0.0423
     10 C         142.3843  139.3290  169.4918 C.ar    1  UNL1        0.1217
     11 N         143.2577  140.2092  170.3358 N.ar    1  UNL1       -0.1676
     12 N         143.4621  141.5009  169.6010 N.ar    1  UNL1       -0.2473
     13 C         144.2715  142.6693  170.0802 C.3     1  UNL1        0.1538
     14 C         142.7149  141.4190  168.3030 C.ar    1  UNL1        0.0968
     15 C         144.1455  139.3695  164.8830 C.3     1  UNL1        0.1085
     16 N         143.3166  138.6619  165.9136 N.pl3   1  UNL1       -0.3312
     17 H         143.7478  138.0652  166.5671 H       1  UNL1        0.1469
     18 C         138.4828  138.8718  162.4837 C.ar    1  UNL1        0.1558
     19 C         138.6370  138.2261  161.1385 C.ar    1  UNL1        0.1342
     20 N         138.4793  139.0444  159.8913 N.ar    1  UNL1       -0.2263
     21 C         138.1675  140.5084  159.9893 C.ar    1  UNL1        0.2025
     22 C         138.0134  141.1541  161.3344 C.ar    1  UNL1        0.2543
     23 N         138.1711  140.3358  162.5816 N.ar    1  UNL1       -0.1931
     24 C         138.0099  141.3268  158.7421 C.1     1  UNL1        0.1246
     25 N         137.8523  142.1451  157.4949 N.1     1  UNL1       -0.1891
     26 O         137.7016  142.6181  161.4324 O.3     1  UNL1       -0.4610
     27 C         138.4883  143.4918  162.3639 C.3     1  UNL1        0.1849
     28 C         137.9731  144.1307  163.6195 C.3     1  UNL1        0.0623
     29 C         139.0946  144.9137  164.2350 C.3     1  UNL1        0.0760
     30 N         140.3030  144.7587  163.3599 N.3     1  UNL1       -0.2684
     31 C         141.6498  145.3744  163.5992 C.3     1  UNL1        0.0897
     32 C         139.9283  143.8799  162.2035 C.3     1  UNL1        0.1163
@<TRIPOS>BOND
     1    15    16    1
     2    16     3    1
     3     3     4   ar
     4     4     5   ar
     5     5     1    1
     6     1    18    1
     7    18    19   ar
     8    19    20   ar
     9    20    21   ar
    10    21    24    1
    11    24    25    3
    12    21    22   ar
    13    22    26    1
    14    27    26    1
    15    27    28    1
    16    28    29    1
    17    29    30    1
    18    30    31    1
    19    30    32    1
    20    22    23   ar
    21     5     6   ar
    22     6     7   ar
    23     7     8   ar
    24     8     9    1
    25     9    10   ar
    26    10    11   ar
    27    11    12   ar
    28    12    13    1
    29    12    14   ar
    30     8     3   ar
    31    14     9   ar
    32    23    18   ar
    33    32    27    1
    34    16    17    1
    35     1     2    1
@<TRIPOS>MOLECULE
*****
 32 35 0 0 0
SMALL
GASTEIGER

@<TRIPOS>ATOM
      1 N         138.5234  138.9513  159.6206 N.pl3   1  UNL1       -0.2820
      2 H         137.6688  139.1026  159.1558 H       1  UNL1        0.1551
      3 C         138.0029  140.2597  163.3310 C.ar    1  UNL1        0.0491
      4 C         137.9383  140.1784  161.8346 C.ar    1  UNL1        0.0487
      5 C         138.5881  139.0326  161.1170 C.ar    1  UNL1        0.1345
      6 N         139.3026  137.9682  161.8958 N.ar    1  UNL1       -0.2290
      7 C         139.3672  138.0496  163.3922 C.ar    1  UNL1        0.1016
      8 C         138.7173  139.1953  164.1097 C.ar    1  UNL1        0.0354
      9 C         138.7820  139.2767  165.6062 C.ar    1  UNL1        0.0423
     10 C         137.7905  138.6869  166.5649 C.ar    1  UNL1        0.1217
     11 N         138.2453  139.0078  167.9578 N.ar    1  UNL1       -0.1676
     12 N         139.5178  139.7960  167.8600 N.ar    1  UNL1       -0.2473
     13 C         140.3181  140.3250  169.0131 C.3     1  UNL1        0.1538
     14 C         139.8495  139.9621  166.4066 C.ar    1  UNL1        0.0968
     15 C         138.1140  142.6785  164.2727 C.3     1  UNL1        0.1085
     16 N         137.3530  141.4055  164.0485 N.pl3   1  UNL1       -0.3312
     17 H         136.4271  141.3220  164.3724 H       1  UNL1        0.1469
     18 C         139.7609  138.6393  158.8323 C.ar    1  UNL1        0.1558
     19 C         139.6454  138.0803  157.4451 C.ar    1  UNL1        0.1342
     20 N         140.8829  137.7684  156.6568 N.ar    1  UNL1       -0.2263
     21 C         142.2358  138.0155  157.2557 C.ar    1  UNL1        0.2025
     22 C         142.3512  138.5744  158.6428 C.ar    1  UNL1        0.2543
     23 N         141.1138  138.8864  159.4311 N.ar    1  UNL1       -0.1931
     24 C         143.4733  137.7035  156.4674 C.1     1  UNL1        0.1246
     25 N         144.7107  137.3916  155.6791 N.1     1  UNL1       -0.1891
     26 O         143.7042  138.8215  159.2418 O.3     1  UNL1       -0.4610
     27 C         143.8203  139.3291  160.6484 C.3     1  UNL1        0.1849
     28 C         144.0204  140.7588  161.0562 C.3     1  UNL1        0.0623
     29 C         144.0805  140.8095  162.5541 C.3     1  UNL1        0.0760
     30 N         143.9175  139.4112  163.0721 N.3     1  UNL1       -0.2684
     31 C         143.9157  139.0000  164.5147 C.3     1  UNL1        0.0897
     32 C         143.7567  138.4963  161.8943 C.3     1  UNL1        0.1163
@<TRIPOS>BOND
     1    15    16    1
     2    16     3    1
     3     3     4   ar
     4     4     5   ar
     5     5     1    1
     6     1    18    1
     7    18    19   ar
     8    19    20   ar
     9    20    21   ar
    10    21    24    1
    11    24    25    3
    12    21    22   ar
    13    22    26    1
    14    27    26    1
    15    27    28    1
    16    28    29    1
    17    29    30    1
    18    30    31    1
    19    30    32    1
    20    22    23   ar
    21     5     6   ar
    22     6     7   ar
    23     7     8   ar
    24     8     9    1
    25     9    10   ar
    26    10    11   ar
    27    11    12   ar
    28    12    13    1
    29    12    14   ar
    30     8     3   ar
    31    14     9   ar
    32    23    18   ar
    33    32    27    1
    34    16    17    1
    35     1     2    1
@<TRIPOS>MOLECULE
*****
 32 35 0 0 0
SMALL
GASTEIGER

@<TRIPOS>ATOM
      1 N         138.0099  141.9524  162.3838 N.pl3   1  UNL1       -0.2820
      2 H         137.1056  141.6841  162.1018 H       1  UNL1        0.1551
      3 C         138.8148  139.7461  165.5830 C.ar    1  UNL1        0.0491
      4 C         138.2987  140.1516  164.2343 C.ar    1  UNL1        0.0487
      5 C         138.5260  141.5469  163.7326 C.ar    1  UNL1        0.1345
      6 N         139.2695  142.5366  164.5797 N.ar    1  UNL1       -0.2290
      7 C         139.7856  142.1311  165.9285 C.ar    1  UNL1        0.1016
      8 C         139.5583  140.7358  166.4301 C.ar    1  UNL1        0.0354
      9 C         140.0744  140.3303  167.7789 C.ar    1  UNL1        0.0423
     10 C         139.2814  140.2925  169.0516 C.ar    1  UNL1        0.1217
     11 N         140.1911  139.8303  170.1510 N.ar    1  UNL1       -0.1676
     12 N         141.5464  139.5825  169.5579 N.ar    1  UNL1       -0.2473
     13 C         142.7606  139.1088  170.3004 C.3     1  UNL1        0.1538
     14 C         141.4743  139.8915  168.0918 C.ar    1  UNL1        0.0968
     15 C         137.4296  138.0597  166.9927 C.3     1  UNL1        0.1085
     16 N         138.5874  138.3509  166.0846 N.pl3   1  UNL1       -0.3312
     17 H         139.1981  137.6262  165.8178 H       1  UNL1        0.1469
     18 C         138.8715  142.7665  161.4648 C.ar    1  UNL1        0.1558
     19 C         138.5100  142.8938  160.0145 C.ar    1  UNL1        0.1342
     20 N         139.3717  143.7080  159.0955 N.ar    1  UNL1       -0.2263
     21 C         140.5949  144.3949  159.6267 C.ar    1  UNL1        0.2025
     22 C         140.9563  144.2676  161.0769 C.ar    1  UNL1        0.2543
     23 N         140.0947  143.4534  161.9959 N.ar    1  UNL1       -0.1931
     24 C         141.4566  145.2091  158.7077 C.1     1  UNL1        0.1246
     25 N         142.3182  146.0233  157.7886 N.1     1  UNL1       -0.1891
     26 O         142.1795  144.9545  161.6081 O.3     1  UNL1       -0.4610
     27 C         143.0877  144.2371  162.5623 C.3     1  UNL1        0.1849
     28 C         143.2002  144.4958  164.0356 C.3     1  UNL1        0.0623
     29 C         144.2249  143.5537  164.5947 C.3     1  UNL1        0.0760
     30 N         144.7456  142.7128  163.4669 N.3     1  UNL1       -0.2684
     31 C         145.7864  141.6381  163.5760 C.3     1  UNL1        0.0897
     32 C         144.0427  143.1352  162.2109 C.3     1  UNL1        0.1163
@<TRIPOS>BOND
     1    15    16    1
     2    16     3    1
     3     3     4   ar
     4     4     5   ar
     5     5     1    1
     6     1    18    1
     7    18    19   ar
     8    19    20   ar
     9    20    21   ar
    10    21    24    1
    11    24    25    3
    12    21    22   ar
    13    22    26    1
    14    27    26    1
    15    27    28    1
    16    28    29    1
    17    29    30    1
    18    30    31    1
    19    30    32    1
    20    22    23   ar
    21     5     6   ar
    22     6     7   ar
    23     7     8   ar
    24     8     9    1
    25     9    10   ar
    26    10    11   ar
    27    11    12   ar
    28    12    13    1
    29    12    14   ar
    30     8     3   ar
    31    14     9   ar
    32    23    18   ar
    33    32    27    1
    34    16    17    1
    35     1     2    1
@<TRIPOS>MOLECULE
*****
 32 35 0 0 0
SMALL
GASTEIGER

@<TRIPOS>ATOM
      1 N         138.4785  138.7241  164.0433 N.pl3   1  UNL1       -0.2820
      2 H         138.1628  137.8078  163.8704 H       1  UNL1        0.1551
      3 C         138.2601  142.0314  161.8605 C.ar    1  UNL1        0.0491
      4 C         138.0861  141.0706  162.9992 C.ar    1  UNL1        0.0487
      5 C         138.6526  139.6849  162.9046 C.ar    1  UNL1        0.1345
      6 N         139.3931  139.2600  161.6713 N.ar    1  UNL1       -0.2290
      7 C         139.5672  140.2208  160.5326 C.ar    1  UNL1        0.1016
      8 C         139.0006  141.6065  160.6273 C.ar    1  UNL1        0.0354
      9 C         139.1747  142.5673  159.4885 C.ar    1  UNL1        0.0423
     10 C         138.4632  142.5092  158.1693 C.ar    1  UNL1        0.1217
     11 N         138.9396  143.6608  157.3346 N.ar    1  UNL1       -0.1676
     12 N         139.9456  144.4307  158.1380 N.ar    1  UNL1       -0.2473
     13 C         140.6777  145.6605  157.6890 C.3     1  UNL1        0.1538
     14 C         140.0909  143.7548  159.4692 C.ar    1  UNL1        0.0968
     15 C         137.7385  144.1583  163.2584 C.3     1  UNL1        0.1085
     16 N         137.6936  143.4171  161.9552 N.pl3   1  UNL1       -0.3312
     17 H         137.2923  143.8400  161.1619 H       1  UNL1        0.1469
     18 C         138.7855  139.1595  165.4455 C.ar    1  UNL1        0.1558
     19 C         137.9515  138.6568  166.5865 C.ar    1  UNL1        0.1342
     20 N         138.2585  139.0921  167.9887 N.ar    1  UNL1       -0.2263
     21 C         139.3995  140.0303  168.2499 C.ar    1  UNL1        0.2025
     22 C         140.2334  140.5330  167.1090 C.ar    1  UNL1        0.2543
     23 N         139.9264  140.0976  165.7068 N.ar    1  UNL1       -0.1931
     24 C         139.7065  140.4657  169.6522 C.1     1  UNL1        0.1246
     25 N         140.0135  140.9011  171.0544 N.1     1  UNL1       -0.1891
     26 O         141.3744  141.4711  167.3702 O.3     1  UNL1       -0.4610
     27 C         141.9017  142.3369  166.2646 C.3     1  UNL1        0.1849
     28 C         143.3284  142.4119  165.8076 C.3     1  UNL1        0.0623
     29 C         143.4034  143.4010  164.6824 C.3     1  UNL1        0.0760
     30 N         142.0229  143.9372  164.4440 N.3     1  UNL1       -0.2684
     31 C         141.6381  144.9529  163.4094 C.3     1  UNL1        0.0897
     32 C         141.0949  143.2796  165.4218 C.3     1  UNL1        0.1163
@<TRIPOS>BOND
     1    15    16    1
     2    16     3    1
     3     3     4   ar
     4     4     5   ar
     5     5     1    1
     6     1    18    1
     7    18    19   ar
     8    19    20   ar
     9    20    21   ar
    10    21    24    1
    11    24    25    3
    12    21    22   ar
    13    22    26    1
    14    27    26    1
    15    27    28    1
    16    28    29    1
    17    29    30    1
    18    30    31    1
    19    30    32    1
    20    22    23   ar
    21     5     6   ar
    22     6     7   ar
    23     7     8   ar
    24     8     9    1
    25     9    10   ar
    26    10    11   ar
    27    11    12   ar
    28    12    13    1
    29    12    14   ar
    30     8     3   ar
    31    14     9   ar
    32    23    18   ar
    33    32    27    1
    34    16    17    1
    35     1     2    1
@<TRIPOS>MOLECULE
*****
 32 35 0 0 0
SMALL
GASTEIGER

@<TRIPOS>ATOM
      1 N         139.5673  138.2773  160.0465 N.pl3   1  UNL1       -0.2820
      2 H         138.9062  137.7701  159.5222 H       1  UNL1        0.1551
      3 C         138.3103  139.7969  163.4904 C.ar    1  UNL1        0.0491
      4 C         138.5119  139.6014  162.0170 C.ar    1  UNL1        0.0487
      5 C         139.3658  138.4727  161.5200 C.ar    1  UNL1        0.1345
      6 N         140.0180  137.5395  162.4965 N.ar    1  UNL1       -0.2290
      7 C         139.8164  137.7350  163.9700 C.ar    1  UNL1        0.1016
      8 C         138.9626  138.8637  164.4669 C.ar    1  UNL1        0.0354
      9 C         138.7610  139.0592  165.9404 C.ar    1  UNL1        0.0423
     10 C         137.6920  138.4202  166.7765 C.ar    1  UNL1        0.1217
     11 N         137.8634  138.8941  168.1893 N.ar    1  UNL1       -0.1676
     12 N         139.0383  139.8259  168.2265 N.ar    1  UNL1       -0.2473
     13 C         139.5658  140.5318  169.4403 C.3     1  UNL1        0.1538
     14 C         139.5930  139.9279  166.8366 C.ar    1  UNL1        0.0968
     15 C         138.0517  142.2894  164.1764 C.3     1  UNL1        0.1085
     16 N         137.4565  140.9256  163.9873 N.pl3   1  UNL1       -0.3312
     17 H         136.5054  140.7713  164.1894 H       1  UNL1        0.1469
     18 C         140.7763  138.8546  159.3718 C.ar    1  UNL1        0.1558
     19 C         141.2709  138.2635  158.0849 C.ar    1  UNL1        0.1342
     20 N         142.4799  138.8409  157.4102 N.ar    1  UNL1       -0.2263
     21 C         143.1941  140.0093  158.0225 C.ar    1  UNL1        0.2025
     22 C         142.6994  140.6003  159.3093 C.ar    1  UNL1        0.2543
     23 N         141.4905  140.0230  159.9840 N.ar    1  UNL1       -0.1931
     24 C         144.4030  140.5866  157.3478 C.1     1  UNL1        0.1246
     25 N         145.6120  141.1640  156.6731 N.1     1  UNL1       -0.1891
     26 O         143.4137  141.7687  159.9215 O.3     1  UNL1       -0.4610
     27 C         143.8970  141.6931  161.3394 C.3     1  UNL1        0.1849
     28 C         144.5280  140.4997  161.9935 C.3     1  UNL1        0.0623
     29 C         144.8552  140.8667  163.4106 C.3     1  UNL1        0.0760
     30 N         144.4265  142.2870  163.6324 N.3     1  UNL1       -0.2684
     31 C         144.5656  143.0606  164.9099 C.3     1  UNL1        0.0897
     32 C         143.8343  142.7977  162.3524 C.3     1  UNL1        0.1163
@<TRIPOS>BOND
     1    15    16    1
     2    16     3    1
     3     3     4   ar
     4     4     5   ar
     5     5     1    1
     6     1    18    1
     7    18    19   ar
     8    19    20   ar
     9    20    21   ar
    10    21    24    1
    11    24    25    3
    12    21    22   ar
    13    22    26    1
    14    27    26    1
    15    27    28    1
    16    28    29    1
    17    29    30    1
    18    30    31    1
    19    30    32    1
    20    22    23   ar
    21     5     6   ar
    22     6     7   ar
    23     7     8   ar
    24     8     9    1
    25     9    10   ar
    26    10    11   ar
    27    11    12   ar
    28    12    13    1
    29    12    14   ar
    30     8     3   ar
    31    14     9   ar
    32    23    18   ar
    33    32    27    1
    34    16    17    1
    35     1     2    1
@<TRIPOS>MOLECULE
*****
 32 35 0 0 0
SMALL
GASTEIGER

@<TRIPOS>ATOM
      1 N         138.6738  138.9070  159.2772 N.pl3   1  UNL1       -0.2820
      2 H         137.8136  138.9186  158.7985 H       1  UNL1        0.1551
      3 C         137.9089  140.1496  162.9679 C.ar    1  UNL1        0.0491
      4 C         137.8820  140.0510  161.4714 C.ar    1  UNL1        0.0487
      5 C         138.7007  139.0055  160.7738 C.ar    1  UNL1        0.1345
      6 N         139.5463  138.0586  161.5727 N.ar    1  UNL1       -0.2290
      7 C         139.5732  138.1572  163.0691 C.ar    1  UNL1        0.1016
      8 C         138.7545  139.2027  163.7668 C.ar    1  UNL1        0.0354
      9 C         138.7815  139.3012  165.2633 C.ar    1  UNL1        0.0423
     10 C         137.9445  138.4988  166.2150 C.ar    1  UNL1        0.1217
     11 N         138.2959  138.9211  167.6107 N.ar    1  UNL1       -0.1676
     12 N         139.3501  139.9846  167.5217 N.ar    1  UNL1       -0.2473
     13 C         139.9915  140.6893  168.6801 C.3     1  UNL1        0.1538
     14 C         139.6502  140.2194  166.0710 C.ar    1  UNL1        0.0968
     15 C         137.5734  142.6142  163.7184 C.3     1  UNL1        0.1085
     16 N         137.0903  141.1951  163.6655 N.pl3   1  UNL1       -0.3312
     17 H         136.2358  140.9499  164.0887 H       1  UNL1        0.1469
     18 C         139.9575  138.7909  158.5100 C.ar    1  UNL1        0.1558
     19 C         141.0747  139.7585  158.7666 C.ar    1  UNL1        0.1342
     20 N         142.3584  139.6424  157.9994 N.ar    1  UNL1       -0.2263
     21 C         142.5249  138.5587  156.9757 C.ar    1  UNL1        0.2025
     22 C         141.4078  137.5912  156.7192 C.ar    1  UNL1        0.2543
     23 N         140.1241  137.7073  157.4864 N.ar    1  UNL1       -0.1931
     24 C         143.8087  138.4426  156.2085 C.1     1  UNL1        0.1246
     25 N         145.0924  138.3265  155.4413 N.1     1  UNL1       -0.1891
     26 O         141.5744  136.5075  155.6955 O.3     1  UNL1       -0.4610
     27 C         142.1029  135.1645  156.1042 C.3     1  UNL1        0.1849
     28 C         143.1501  134.9093  157.1474 C.3     1  UNL1        0.0623
     29 C         143.3714  133.4280  157.2294 C.3     1  UNL1        0.0760
     30 N         142.4610  132.7677  156.2368 N.3     1  UNL1       -0.2684
     31 C         142.3535  131.2930  155.9840 C.3     1  UNL1        0.0897
     32 C         141.6770  133.8409  155.5414 C.3     1  UNL1        0.1163
@<TRIPOS>BOND
     1    15    16    1
     2    16     3    1
     3     3     4   ar
     4     4     5   ar
     5     5     1    1
     6     1    18    1
     7    18    19   ar
     8    19    20   ar
     9    20    21   ar
    10    21    24    1
    11    24    25    3
    12    21    22   ar
    13    22    26    1
    14    27    26    1
    15    27    28    1
    16    28    29    1
    17    29    30    1
    18    30    31    1
    19    30    32    1
    20    22    23   ar
    21     5     6   ar
    22     6     7   ar
    23     7     8   ar
    24     8     9    1
    25     9    10   ar
    26    10    11   ar
    27    11    12   ar
    28    12    13    1
    29    12    14   ar
    30     8     3   ar
    31    14     9   ar
    32    23    18   ar
    33    32    27    1
    34    16    17    1
    35     1     2    1
@<TRIPOS>MOLECULE
*****
 32 35 0 0 0
SMALL
GASTEIGER

@<TRIPOS>ATOM
      1 N         138.8475  137.4599  164.2217 N.pl3   1  UNL1       -0.2820
      2 H         138.1848  136.7330  164.1807 H       1  UNL1        0.1551
      3 C         139.9299  138.6961  160.6092 C.ar    1  UNL1        0.0491
      4 C         139.0800  138.3876  161.8060 C.ar    1  UNL1        0.0487
      5 C         139.6974  137.7684  163.0248 C.ar    1  UNL1        0.1345
      6 N         141.1647  137.4577  163.0467 N.ar    1  UNL1       -0.2290
      7 C         142.0146  137.7662  161.8499 C.ar    1  UNL1        0.1016
      8 C         141.3971  138.3854  160.6311 C.ar    1  UNL1        0.0354
      9 C         142.2471  138.6939  159.4342 C.ar    1  UNL1        0.0423
     10 C         142.5124  137.7730  158.2802 C.ar    1  UNL1        0.1217
     11 N         143.4102  138.4874  157.3140 N.ar    1  UNL1       -0.1676
     12 N         143.6998  139.8499  157.8709 N.ar    1  UNL1       -0.2473
     13 C         144.5576  140.9002  157.2299 C.3     1  UNL1        0.1538
     14 C         142.9810  139.9774  159.1812 C.ar    1  UNL1        0.0968
     15 C         138.0783  140.1578  159.5206 C.3     1  UNL1        0.1085
     16 N         139.3125  139.3153  159.3904 N.pl3   1  UNL1       -0.3312
     17 H         139.7173  139.1687  158.5050 H       1  UNL1        0.1469
     18 C         139.0073  138.2589  165.4811 C.ar    1  UNL1        0.1558
     19 C         137.9422  138.2163  166.5365 C.ar    1  UNL1        0.1342
     20 N         138.1020  139.0154  167.7959 N.ar    1  UNL1       -0.2263
     21 C         139.3269  139.8570  167.9998 C.ar    1  UNL1        0.2025
     22 C         140.3918  139.8995  166.9444 C.ar    1  UNL1        0.2543
     23 N         140.2320  139.1005  165.6850 N.ar    1  UNL1       -0.1931
     24 C         139.4867  140.6560  169.2592 C.1     1  UNL1        0.1246
     25 N         139.6465  141.4551  170.5185 N.1     1  UNL1       -0.1891
     26 O         141.6167  140.7411  167.1483 O.3     1  UNL1       -0.4610
     27 C         141.9309  141.8525  166.1912 C.3     1  UNL1        0.1849
     28 C         143.2962  142.2345  165.7012 C.3     1  UNL1        0.0623
     29 C         143.1441  143.3951  164.7632 C.3     1  UNL1        0.0760
     30 N         141.6848  143.7303  164.6734 N.3     1  UNL1       -0.2684
     31 C         141.0812  144.8265  163.8463 C.3     1  UNL1        0.0897
     32 C         140.9350  142.7769  165.5560 C.3     1  UNL1        0.1163
@<TRIPOS>BOND
     1    15    16    1
     2    16     3    1
     3     3     4   ar
     4     4     5   ar
     5     5     1    1
     6     1    18    1
     7    18    19   ar
     8    19    20   ar
     9    20    21   ar
    10    21    24    1
    11    24    25    3
    12    21    22   ar
    13    22    26    1
    14    27    26    1
    15    27    28    1
    16    28    29    1
    17    29    30    1
    18    30    31    1
    19    30    32    1
    20    22    23   ar
    21     5     6   ar
    22     6     7   ar
    23     7     8   ar
    24     8     9    1
    25     9    10   ar
    26    10    11   ar
    27    11    12   ar
    28    12    13    1
    29    12    14   ar
    30     8     3   ar
    31    14     9   ar
    32    23    18   ar
    33    32    27    1
    34    16    17    1
    35     1     2    1
