@<TRIPOS>MOLECULE
*****
 18 19 0 0 0
SMALL
GASTEIGER

@<TRIPOS>ATOM
      1 C         139.0542  139.8080  166.6544 C.2     1  UNL1        0.1535
      2 N         138.9687  139.4851  168.1167 N.2     1  UNL1       -0.2470
      3 C         140.1491  140.1102  168.7993 C.3     1  UNL1        0.1720
      4 C         140.5871  140.1251  170.2339 C.3     1  UNL1        0.1652
      5 O         139.7720  139.4159  171.2743 O.3     1  UNL1       -0.3798
      6 C         141.8402  140.8494  170.6280 C.3     1  UNL1        0.1662
      7 O         142.2781  140.8643  172.0625 O.3     1  UNL1       -0.3795
      8 C         142.6553  141.5586  169.5875 C.3     1  UNL1        0.1456
      9 C         143.9083  142.2828  169.9816 C.3     1  UNL1        0.0348
     10 O         142.2173  141.5436  168.1529 O.3     1  UNL1       -0.3428
     11 C         140.9642  140.8194  167.7589 C.3     1  UNL1        0.1937
     12 S         140.2875  140.6327  166.4333 S.3     1  UNL1       -0.0497
     13 H         140.1915  139.5232  172.1423 H       1  UNL1        0.2105
     14 H         141.6445  140.3630  172.5993 H       1  UNL1        0.2105
     15 N         138.0779  139.3813  165.5987 N.pl3   1  UNL1       -0.3135
     16 H         137.1174  139.3290  165.8086 H       1  UNL1        0.1487
     17 C         139.2158  137.7064  163.9708 C.3     1  UNL1        0.0230
     18 C         138.5649  139.0341  164.2231 C.3     1  UNL1        0.0887
@<TRIPOS>BOND
     1    17    18    1
     2    18    15    1
     3    15     1    1
     4     1     2    2
     5     3     2    1
     6     3     4    1
     7     4     5    1
     8     4     6    1
     9     6     7    1
    10     6     8    1
    11     8     9    1
    12     8    10    1
    13    11    10    1
    14    11    12    1
    15    12     1    1
    16    11     3    1
    17    15    16    1
    18     5    13    1
    19     7    14    1
@<TRIPOS>MOLECULE
*****
 18 19 0 0 0
SMALL
GASTEIGER

@<TRIPOS>ATOM
      1 C         142.6724  139.2426  166.4711 C.2     1  UNL1        0.1535
      2 N         143.0935  139.1021  167.9039 N.2     1  UNL1       -0.2470
      3 C         142.5465  140.2734  168.6648 C.3     1  UNL1        0.1720
      4 C         142.6416  140.6645  170.1098 C.3     1  UNL1        0.1652
      5 O         143.4007  139.8001  171.0724 O.3     1  UNL1       -0.3798
      6 C         141.9775  141.9200  170.5923 C.3     1  UNL1        0.1662
      7 O         142.0726  142.3111  172.0372 O.3     1  UNL1       -0.3795
      8 C         141.2183  142.7844  169.6297 C.3     1  UNL1        0.1456
      9 C         140.5542  144.0399  170.1121 C.3     1  UNL1        0.0348
     10 O         141.1232  142.3932  168.1847 O.3     1  UNL1       -0.3428
     11 C         141.7873  141.1377  167.7023 C.3     1  UNL1        0.1937
     12 S         141.8651  140.5007  166.3465 S.3     1  UNL1       -0.0497
     13 H         143.3641  140.1934  171.9583 H       1  UNL1        0.2105
     14 H         142.5941  141.6492  172.5177 H       1  UNL1        0.2105
     15 N         143.0009  138.2919  165.3583 N.pl3   1  UNL1       -0.3135
     16 H         142.7750  137.3374  165.4436 H       1  UNL1        0.1487
     17 C         144.9539  139.5700  164.2174 C.3     1  UNL1        0.0230
     18 C         143.6735  138.7954  164.1158 C.3     1  UNL1        0.0887
@<TRIPOS>BOND
     1    17    18    1
     2    18    15    1
     3    15     1    1
     4     1     2    2
     5     3     2    1
     6     3     4    1
     7     4     5    1
     8     4     6    1
     9     6     7    1
    10     6     8    1
    11     8     9    1
    12     8    10    1
    13    11    10    1
    14    11    12    1
    15    12     1    1
    16    11     3    1
    17    15    16    1
    18     5    13    1
    19     7    14    1
@<TRIPOS>MOLECULE
*****
 18 19 0 0 0
SMALL
GASTEIGER

@<TRIPOS>ATOM
      1 C         140.6088  144.2028  164.4935 C.2     1  UNL1        0.1535
      2 N         141.8183  144.6085  163.7044 N.2     1  UNL1       -0.2470
      3 C         142.8046  143.4795  163.7547 C.3     1  UNL1        0.1720
      4 C         144.1715  143.3137  163.1597 C.3     1  UNL1        0.1652
      5 O         144.7714  144.4171  162.3395 O.3     1  UNL1       -0.3798
      6 C         144.9386  142.0444  163.3848 C.3     1  UNL1        0.1662
      7 O         146.3055  141.8786  162.7897 O.3     1  UNL1       -0.3795
      8 C         144.3387  140.9410  164.2049 C.3     1  UNL1        0.1456
      9 C         145.1057  139.6718  164.4300 C.3     1  UNL1        0.0348
     10 O         142.9718  141.1069  164.8000 O.3     1  UNL1       -0.3428
     11 C         142.2048  142.3761  164.5749 C.3     1  UNL1        0.1937
     12 S         140.8477  142.8232  165.0314 S.3     1  UNL1       -0.0497
     13 H         145.6518  144.1498  162.0325 H       1  UNL1        0.2105
     14 H         146.5412  142.6780  162.2935 H       1  UNL1        0.2105
     15 N         139.3767  145.0314  164.7071 N.pl3   1  UNL1       -0.3135
     16 H         139.4574  145.9633  165.0142 H       1  UNL1        0.1487
     17 C         137.6909  143.8767  163.1026 C.3     1  UNL1        0.0230
     18 C         138.0219  144.4401  164.4528 C.3     1  UNL1        0.0887
@<TRIPOS>BOND
     1    17    18    1
     2    18    15    1
     3    15     1    1
     4     1     2    2
     5     3     2    1
     6     3     4    1
     7     4     5    1
     8     4     6    1
     9     6     7    1
    10     6     8    1
    11     8     9    1
    12     8    10    1
    13    11    10    1
    14    11    12    1
    15    12     1    1
    16    11     3    1
    17    15    16    1
    18     5    13    1
    19     7    14    1
@<TRIPOS>MOLECULE
*****
 18 19 0 0 0
SMALL
GASTEIGER

@<TRIPOS>ATOM
      1 C         143.4003  142.3379  166.3659 C.2     1  UNL1        0.1535
      2 N         143.5998  142.7951  167.7805 N.2     1  UNL1       -0.2470
      3 C         142.4367  142.3087  168.5933 C.3     1  UNL1        0.1720
      4 C         142.0951  142.4580  170.0462 C.3     1  UNL1        0.1652
      5 O         143.0135  143.2158  170.9585 O.3     1  UNL1       -0.3798
      6 C         140.8352  141.8494  170.5869 C.3     1  UNL1        0.1662
      7 O         140.4937  141.9987  172.0398 O.3     1  UNL1       -0.3795
      8 C         139.9168  141.0916  169.6746 C.3     1  UNL1        0.1456
      9 C         138.6570  140.4830  170.2152 C.3     1  UNL1        0.0348
     10 O         140.2584  140.9423  168.2216 O.3     1  UNL1       -0.3428
     11 C         141.5183  141.5509  167.6810 C.3     1  UNL1        0.1937
     12 S         142.1139  141.5689  166.3044 S.3     1  UNL1       -0.0497
     13 H         142.6477  143.2175  171.8569 H       1  UNL1        0.2105
     14 H         141.1868  142.5118  172.4838 H       1  UNL1        0.2105
     15 N         144.3249  142.6031  165.2149 N.pl3   1  UNL1       -0.3135
     16 H         145.2510  142.2702  165.2406 H       1  UNL1        0.1487
     17 C         143.6742  144.8639  164.1125 C.3     1  UNL1        0.0230
     18 C         143.8384  143.3755  164.0246 C.3     1  UNL1        0.0887
@<TRIPOS>BOND
     1    17    18    1
     2    18    15    1
     3    15     1    1
     4     1     2    2
     5     3     2    1
     6     3     4    1
     7     4     5    1
     8     4     6    1
     9     6     7    1
    10     6     8    1
    11     8     9    1
    12     8    10    1
    13    11    10    1
    14    11    12    1
    15    12     1    1
    16    11     3    1
    17    15    16    1
    18     5    13    1
    19     7    14    1
@<TRIPOS>MOLECULE
*****
 18 19 0 0 0
SMALL
GASTEIGER

@<TRIPOS>ATOM
      1 C         138.4809  140.9086  165.1049 C.2     1  UNL1        0.1535
      2 N         137.9092  142.0016  164.2514 N.2     1  UNL1       -0.2470
      3 C         138.9940  143.0056  163.9959 C.3     1  UNL1        0.1720
      4 C         139.0112  144.2890  163.2197 C.3     1  UNL1        0.1652
      5 O         137.7692  144.7615  162.5241 O.3     1  UNL1       -0.3798
      6 C         140.2706  145.1000  163.1392 C.3     1  UNL1        0.1662
      7 O         140.2878  146.3834  162.3630 O.3     1  UNL1       -0.3795
      8 C         141.5127  144.6274  163.8348 C.3     1  UNL1        0.1456
      9 C         142.7720  145.4383  163.7543 C.3     1  UNL1        0.0348
     10 O         141.4954  143.3439  164.6110 O.3     1  UNL1       -0.3428
     11 C         140.2361  142.5331  164.6916 C.3     1  UNL1        0.1937
     12 S         139.9189  141.2370  165.3770 S.3     1  UNL1       -0.0497
     13 H         137.9508  145.6006  162.0726 H       1  UNL1        0.2105
     14 H         139.4111  146.5409  161.9792 H       1  UNL1        0.2105
     15 N         137.7438  139.6994  165.5996 N.pl3   1  UNL1       -0.3135
     16 H         136.7603  139.7063  165.6438 H       1  UNL1        0.1487
     17 C         139.0893  137.5606  164.9951 C.3     1  UNL1        0.0230
     18 C         138.5052  138.4797  166.0267 C.3     1  UNL1        0.0887
@<TRIPOS>BOND
     1    17    18    1
     2    18    15    1
     3    15     1    1
     4     1     2    2
     5     3     2    1
     6     3     4    1
     7     4     5    1
     8     4     6    1
     9     6     7    1
    10     6     8    1
    11     8     9    1
    12     8    10    1
    13    11    10    1
    14    11    12    1
    15    12     1    1
    16    11     3    1
    17    15    16    1
    18     5    13    1
    19     7    14    1
@<TRIPOS>MOLECULE
*****
 18 19 0 0 0
SMALL
GASTEIGER

@<TRIPOS>ATOM
      1 C         138.4321  143.7200  162.4840 C.2     1  UNL1        0.1535
      2 N         137.7774  142.7038  161.5959 N.2     1  UNL1       -0.2470
      3 C         138.0990  141.3414  162.1347 C.3     1  UNL1        0.1720
      4 C         137.7250  139.9648  161.6712 C.3     1  UNL1        0.1652
      5 O         136.8714  139.7906  160.4500 O.3     1  UNL1       -0.3798
      6 C         138.2045  138.7621  162.4287 C.3     1  UNL1        0.1662
      7 O         137.8304  137.3855  161.9652 O.3     1  UNL1       -0.3795
      8 C         139.0580  138.9362  163.6499 C.3     1  UNL1        0.1456
      9 C         139.5375  137.7337  164.4074 C.3     1  UNL1        0.0348
     10 O         139.4321  140.3130  164.1134 O.3     1  UNL1       -0.3428
     11 C         138.9526  141.5155  163.3558 C.3     1  UNL1        0.1937
     12 S         139.1584  142.9856  163.5717 S.3     1  UNL1       -0.0497
     13 H         136.7246  138.8452  160.2903 H       1  UNL1        0.2105
     14 H         137.2806  137.4508  161.1688 H       1  UNL1        0.2105
     15 N         138.3712  145.2091  162.3143 N.pl3   1  UNL1       -0.3135
     16 H         137.5250  145.6880  162.4689 H       1  UNL1        0.1487
     17 C         140.5239  145.4018  160.8725 C.3     1  UNL1        0.0230
     18 C         139.5995  145.9686  161.9090 C.3     1  UNL1        0.0887
@<TRIPOS>BOND
     1    17    18    1
     2    18    15    1
     3    15     1    1
     4     1     2    2
     5     3     2    1
     6     3     4    1
     7     4     5    1
     8     4     6    1
     9     6     7    1
    10     6     8    1
    11     8     9    1
    12     8    10    1
    13    11    10    1
    14    11    12    1
    15    12     1    1
    16    11     3    1
    17    15    16    1
    18     5    13    1
    19     7    14    1
@<TRIPOS>MOLECULE
*****
 18 19 0 0 0
SMALL
GASTEIGER

@<TRIPOS>ATOM
      1 C         139.7087  140.7893  166.9177 C.2     1  UNL1        0.1535
      2 N         138.6658  140.5583  165.8646 N.2     1  UNL1       -0.2470
      3 C         138.7346  141.6940  164.8871 C.3     1  UNL1        0.1720
      4 C         137.9492  141.9992  163.6462 C.3     1  UNL1        0.1652
      5 O         136.8639  141.0663  163.1971 O.3     1  UNL1       -0.3798
      6 C         138.2492  143.2374  162.8542 C.3     1  UNL1        0.1662
      7 O         137.4637  143.5425  161.6133 O.3     1  UNL1       -0.3795
      8 C         139.3345  144.1703  163.3032 C.3     1  UNL1        0.1456
      9 C         139.6345  145.4084  162.5114 C.3     1  UNL1        0.0348
     10 O         140.1200  143.8650  164.5442 O.3     1  UNL1       -0.3428
     11 C         139.8200  142.6270  165.3361 C.3     1  UNL1        0.1937
     12 S         140.4220  142.0678  166.5911 S.3     1  UNL1       -0.0497
     13 H         136.4590  141.4085  162.3848 H       1  UNL1        0.2105
     14 H         136.8068  142.8441  161.4665 H       1  UNL1        0.2105
     15 N         139.9890  139.8983  168.0914 N.pl3   1  UNL1       -0.3135
     16 H         139.3057  139.2596  168.3988 H       1  UNL1        0.1487
     17 C         142.5412  139.4161  168.1516 C.3     1  UNL1        0.0230
     18 C         141.3102  139.9804  168.7967 C.3     1  UNL1        0.0887
@<TRIPOS>BOND
     1    17    18    1
     2    18    15    1
     3    15     1    1
     4     1     2    2
     5     3     2    1
     6     3     4    1
     7     4     5    1
     8     4     6    1
     9     6     7    1
    10     6     8    1
    11     8     9    1
    12     8    10    1
    13    11    10    1
    14    11    12    1
    15    12     1    1
    16    11     3    1
    17    15    16    1
    18     5    13    1
    19     7    14    1
@<TRIPOS>MOLECULE
*****
 18 19 0 0 0
SMALL
GASTEIGER

@<TRIPOS>ATOM
      1 C         141.5988  140.9145  167.3485 C.2     1  UNL1        0.1535
      2 N         140.5850  140.0297  166.6856 N.2     1  UNL1       -0.2470
      3 C         139.7240  140.8883  165.8072 C.3     1  UNL1        0.1720
      4 C         138.5637  140.5641  164.9137 C.3     1  UNL1        0.1652
      5 O         138.0821  139.1486  164.7936 O.3     1  UNL1       -0.3798
      6 C         137.8850  141.6555  164.1401 C.3     1  UNL1        0.1662
      7 O         136.7247  141.3313  163.2465 O.3     1  UNL1       -0.3795
      8 C         138.3666  143.0710  164.2601 C.3     1  UNL1        0.1456
      9 C         137.6879  144.1623  163.4866 C.3     1  UNL1        0.0348
     10 O         139.5270  143.3951  165.1538 O.3     1  UNL1       -0.3428
     11 C         140.2057  142.3038  165.9273 C.3     1  UNL1        0.1937
     12 S         141.3643  142.3200  166.8798 S.3     1  UNL1       -0.0497
     13 H         137.3309  139.1136  164.1809 H       1  UNL1        0.2105
     14 H         136.5439  140.3790  163.2839 H       1  UNL1        0.2105
     15 N         142.6606  140.4716  168.3110 N.pl3   1  UNL1       -0.3135
     16 H         143.2481  139.7155  168.0821 H       1  UNL1        0.1487
     17 C         143.8036  142.3126  169.7442 C.3     1  UNL1        0.0230
     18 C         142.8271  141.1805  169.6223 C.3     1  UNL1        0.0887
@<TRIPOS>BOND
     1    17    18    1
     2    18    15    1
     3    15     1    1
     4     1     2    2
     5     3     2    1
     6     3     4    1
     7     4     5    1
     8     4     6    1
     9     6     7    1
    10     6     8    1
    11     8     9    1
    12     8    10    1
    13    11    10    1
    14    11    12    1
    15    12     1    1
    16    11     3    1
    17    15    16    1
    18     5    13    1
    19     7    14    1
@<TRIPOS>MOLECULE
*****
 18 19 0 0 0
SMALL
GASTEIGER

@<TRIPOS>ATOM
      1 C         140.3233  142.2484  166.1023 C.2     1  UNL1        0.1535
      2 N         140.4053  142.8407  167.4780 N.2     1  UNL1       -0.2470
      3 C         141.0280  141.8214  168.3853 C.3     1  UNL1        0.1720
      4 C         141.3583  141.8483  169.8482 C.3     1  UNL1        0.1652
      5 O         141.0555  143.0707  170.6631 O.3     1  UNL1       -0.3798
      6 C         141.9916  140.6529  170.4962 C.3     1  UNL1        0.1662
      7 O         142.3220  140.6798  171.9591 O.3     1  UNL1       -0.3795
      8 C         142.2944  139.4305  169.6813 C.3     1  UNL1        0.1456
      9 C         142.9276  138.2351  170.3293 C.3     1  UNL1        0.0348
     10 O         141.9640  139.4036  168.2184 O.3     1  UNL1       -0.3428
     11 C         141.3308  140.5990  167.5704 C.3     1  UNL1        0.1937
     12 S         140.8953  140.8629  166.1595 S.3     1  UNL1       -0.0497
     13 H         141.3294  142.9229  171.5818 H       1  UNL1        0.2105
     14 H         142.0637  141.5367  172.3332 H       1  UNL1        0.2105
     15 N         139.7669  142.9230  164.8836 N.pl3   1  UNL1       -0.3135
     16 H         139.1204  142.4502  164.3112 H       1  UNL1        0.1487
     17 C         139.5076  145.0609  163.4304 C.3     1  UNL1        0.0230
     18 C         140.1956  144.3180  164.5370 C.3     1  UNL1        0.0887
@<TRIPOS>BOND
     1    17    18    1
     2    18    15    1
     3    15     1    1
     4     1     2    2
     5     3     2    1
     6     3     4    1
     7     4     5    1
     8     4     6    1
     9     6     7    1
    10     6     8    1
    11     8     9    1
    12     8    10    1
    13    11    10    1
    14    11    12    1
    15    12     1    1
    16    11     3    1
    17    15    16    1
    18     5    13    1
    19     7    14    1
