@<TRIPOS>MOLECULE
*****
 28 31 0 0 0
SMALL
GASTEIGER

@<TRIPOS>ATOM
      1 C         138.2558  139.3571  166.2407 C.3     1  UNL1        0.0340
      2 C         139.3141  139.8053  165.2767 C.ar    1  UNL1        0.0125
      3 C         139.1296  140.0250  163.8044 C.ar    1  UNL1        0.0924
      4 N         140.4441  140.4681  163.2336 N.ar    1  UNL1       -0.1671
      5 N         141.4409  140.5223  164.3532 N.ar    1  UNL1       -0.2119
      6 C         140.7425  140.1127  165.6159 C.ar    1  UNL1        0.0832
      7 C         142.8830  140.9168  164.2313 C.ar    1  UNL1        0.1743
      8 N         143.9257  139.8733  163.9595 N.ar    1  UNL1       -0.2243
      9 C         145.3677  140.2678  163.8376 C.ar    1  UNL1        0.1006
     10 C         145.7671  141.7058  163.9876 C.ar    1  UNL1        0.0217
     11 C         144.7244  142.7493  164.2595 C.ar    1  UNL1        0.0161
     12 C         143.2824  142.3549  164.3813 C.ar    1  UNL1        0.0934
     13 CL        142.2397  143.3984  164.6532 Cl      1  UNL1       -0.0790
     14 C         141.3635  140.0257  166.9785 C.ar    1  UNL1        0.0367
     15 C         140.8800  140.9197  168.0816 C.ar    1  UNL1        0.0055
     16 C         141.5010  140.8327  169.4442 C.ar    1  UNL1        0.0309
     17 C         142.6056  139.8517  169.7038 C.ar    1  UNL1        0.1384
     18 CL        143.2266  139.7647  171.0664 Cl      1  UNL1       -0.0613
     19 N         143.0892  138.9577  168.6006 N.ar    1  UNL1       -0.2324
     20 C         142.4682  139.0446  167.2380 C.ar    1  UNL1        0.1013
     21 C         137.8546  139.8349  163.0375 C.3     1  UNL1        0.1166
     22 N         136.9570  141.0071  162.7723 N.3     1  UNL1       -0.2935
     23 H         136.0969  140.8437  163.2956 H       1  UNL1        0.1236
     24 C         137.4146  142.3943  163.1134 C.3     1  UNL1        0.0543
     25 C         137.4338  143.0044  164.4837 C.3     1  UNL1        0.0157
     26 C         137.9643  144.4021  164.3613 C.3     1  UNL1        0.0014
     27 C         138.2730  144.6558  162.9156 C.3     1  UNL1        0.0014
     28 C         137.9333  143.4149  162.1443 C.3     1  UNL1        0.0157
@<TRIPOS>BOND
     1     1     2    1
     2     2     3   ar
     3     3    21    1
     4    21    22    1
     5    22    24    1
     6    24    25    1
     7    25    26    1
     8    26    27    1
     9    27    28    1
    10     3     4   ar
    11     4     5   ar
    12     5     7    1
    13     7     8   ar
    14     8     9   ar
    15     9    10   ar
    16    10    11   ar
    17    11    12   ar
    18    12    13    1
    19     5     6   ar
    20     6    14    1
    21    14    15   ar
    22    15    16   ar
    23    16    17   ar
    24    17    18    1
    25    17    19   ar
    26    19    20   ar
    27     6     2   ar
    28    20    14   ar
    29    28    24    1
    30    12     7   ar
    31    22    23    1
@<TRIPOS>MOLECULE
*****
 28 31 0 0 0
SMALL
GASTEIGER

@<TRIPOS>ATOM
      1 C         143.0701  138.4454  165.6282 C.3     1  UNL1        0.0340
      2 C         142.6065  139.7799  165.1241 C.ar    1  UNL1        0.0125
      3 C         143.4443  140.7847  164.3902 C.ar    1  UNL1        0.0924
      4 N         142.5794  141.9698  164.0779 N.ar    1  UNL1       -0.1671
      5 N         141.2070  141.6974  164.6188 N.ar    1  UNL1       -0.2119
      6 C         141.2238  140.3440  165.2654 C.ar    1  UNL1        0.0832
      7 C         140.0254  142.6170  164.5289 C.ar    1  UNL1        0.1743
      8 N         139.8989  143.7707  165.4792 N.ar    1  UNL1       -0.2243
      9 C         138.7173  144.6903  165.3894 C.ar    1  UNL1        0.1006
     10 C         137.6622  144.4563  164.3492 C.ar    1  UNL1        0.0217
     11 C         137.7887  143.3026  163.3989 C.ar    1  UNL1        0.0161
     12 C         138.9703  142.3830  163.4888 C.ar    1  UNL1        0.0934
     13 CL        139.0968  141.2293  162.5385 Cl      1  UNL1       -0.0790
     14 C         140.0620  139.6726  165.9356 C.ar    1  UNL1        0.0367
     15 C         139.2749  138.6272  165.2025 C.ar    1  UNL1        0.0055
     16 C         138.1130  137.9557  165.8727 C.ar    1  UNL1        0.0309
     17 C         137.7382  138.3298  167.2762 C.ar    1  UNL1        0.1384
     18 CL        136.5763  137.6583  167.9464 Cl      1  UNL1       -0.0613
     19 N         138.5253  139.3752  168.0093 N.ar    1  UNL1       -0.2324
     20 C         139.6872  140.0467  167.3391 C.ar    1  UNL1        0.1013
     21 C         144.8927  140.6313  164.0316 C.3     1  UNL1        0.1166
     22 N         145.2798  140.1425  162.6673 N.3     1  UNL1       -0.2935
     23 H         146.0017  139.4346  162.8020 H       1  UNL1        0.1236
     24 C         144.2445  139.5391  161.7652 C.3     1  UNL1        0.0543
     25 C         143.4612  140.2655  160.7121 C.3     1  UNL1        0.0157
     26 C         142.5432  139.2786  160.0538 C.3     1  UNL1        0.0014
     27 C         142.7592  137.9423  160.6999 C.3     1  UNL1        0.0014
     28 C         143.8106  138.1032  161.7576 C.3     1  UNL1        0.0157
@<TRIPOS>BOND
     1     1     2    1
     2     2     3   ar
     3     3    21    1
     4    21    22    1
     5    22    24    1
     6    24    25    1
     7    25    26    1
     8    26    27    1
     9    27    28    1
    10     3     4   ar
    11     4     5   ar
    12     5     7    1
    13     7     8   ar
    14     8     9   ar
    15     9    10   ar
    16    10    11   ar
    17    11    12   ar
    18    12    13    1
    19     5     6   ar
    20     6    14    1
    21    14    15   ar
    22    15    16   ar
    23    16    17   ar
    24    17    18    1
    25    17    19   ar
    26    19    20   ar
    27     6     2   ar
    28    20    14   ar
    29    28    24    1
    30    12     7   ar
    31    22    23    1
@<TRIPOS>MOLECULE
*****
 28 31 0 0 0
SMALL
GASTEIGER

@<TRIPOS>ATOM
      1 C         137.8537  138.7635  166.7541 C.3     1  UNL1        0.0340
      2 C         138.8362  139.8968  166.7319 C.ar    1  UNL1        0.0125
      3 C         139.5772  140.4446  167.9155 C.ar    1  UNL1        0.0924
      4 N         140.4491  141.5676  167.4373 N.ar    1  UNL1       -0.1671
      5 N         140.2470  141.7138  165.9582 N.ar    1  UNL1       -0.2119
      6 C         139.2502  140.6812  165.5222 C.ar    1  UNL1        0.0832
      7 C         140.9231  142.7167  165.0708 C.ar    1  UNL1        0.1743
      8 N         142.2595  142.4026  164.4664 N.ar    1  UNL1       -0.2243
      9 C         142.9355  143.4054  163.5790 C.ar    1  UNL1        0.1006
     10 C         142.2752  144.7221  163.2962 C.ar    1  UNL1        0.0217
     11 C         140.9388  145.0362  163.9007 C.ar    1  UNL1        0.0161
     12 C         140.2627  144.0334  164.7880 C.ar    1  UNL1        0.0934
     13 CL        138.9263  144.3474  165.3925 Cl      1  UNL1       -0.0790
     14 C         138.7543  140.4701  164.1224 C.ar    1  UNL1        0.0367
     15 C         139.2328  139.2920  163.3269 C.ar    1  UNL1        0.0055
     16 C         138.7370  139.0808  161.9270 C.ar    1  UNL1        0.0309
     17 C         137.7626  140.0479  161.3227 C.ar    1  UNL1        0.1384
     18 CL        137.2668  139.8368  159.9228 Cl      1  UNL1       -0.0613
     19 N         137.2840  141.2261  162.1182 N.ar    1  UNL1       -0.2324
     20 C         137.7799  141.4372  163.5181 C.ar    1  UNL1        0.1013
     21 C         139.4658  139.9553  169.3291 C.3     1  UNL1        0.1166
     22 N         140.6957  139.8307  170.1787 N.3     1  UNL1       -0.2935
     23 H         141.1786  138.9850  169.8754 H       1  UNL1        0.1236
     24 C         141.7148  140.9313  170.1889 C.3     1  UNL1        0.0543
     25 C         141.5321  142.2967  170.7824 C.3     1  UNL1        0.0157
     26 C         142.7999  143.0690  170.5677 C.3     1  UNL1        0.0014
     27 C         143.7663  142.1809  169.8415 C.3     1  UNL1        0.0014
     28 C         143.0956  140.8597  169.6073 C.3     1  UNL1        0.0157
@<TRIPOS>BOND
     1     1     2    1
     2     2     3   ar
     3     3    21    1
     4    21    22    1
     5    22    24    1
     6    24    25    1
     7    25    26    1
     8    26    27    1
     9    27    28    1
    10     3     4   ar
    11     4     5   ar
    12     5     7    1
    13     7     8   ar
    14     8     9   ar
    15     9    10   ar
    16    10    11   ar
    17    11    12   ar
    18    12    13    1
    19     5     6   ar
    20     6    14    1
    21    14    15   ar
    22    15    16   ar
    23    16    17   ar
    24    17    18    1
    25    17    19   ar
    26    19    20   ar
    27     6     2   ar
    28    20    14   ar
    29    28    24    1
    30    12     7   ar
    31    22    23    1
@<TRIPOS>MOLECULE
*****
 28 31 0 0 0
SMALL
GASTEIGER

@<TRIPOS>ATOM
      1 C         140.8276  140.7737  169.6368 C.3     1  UNL1        0.0340
      2 C         141.6874  140.0671  168.6310 C.ar    1  UNL1        0.0125
      3 C         142.7698  139.0750  168.9383 C.ar    1  UNL1        0.0924
      4 N         143.3671  138.6234  167.6386 N.ar    1  UNL1       -0.1671
      5 N         142.6540  139.3363  166.5281 N.ar    1  UNL1       -0.2119
      6 C         141.6159  140.2286  167.1415 C.ar    1  UNL1        0.0832
      7 C         142.9304  139.1837  165.0617 C.ar    1  UNL1        0.1743
      8 N         144.0045  140.0045  164.4116 N.ar    1  UNL1       -0.2243
      9 C         144.2810  139.8519  162.9453 C.ar    1  UNL1        0.1006
     10 C         143.4834  138.8786  162.1290 C.ar    1  UNL1        0.0217
     11 C         142.4092  138.0579  162.7790 C.ar    1  UNL1        0.0161
     12 C         142.1327  138.2104  164.2454 C.ar    1  UNL1        0.0934
     13 CL        141.0586  137.3896  164.8955 Cl      1  UNL1       -0.0790
     14 C         140.6720  141.1250  166.3962 C.ar    1  UNL1        0.0367
     15 C         140.9553  142.5945  166.2952 C.ar    1  UNL1        0.0055
     16 C         140.0113  143.4909  165.5499 C.ar    1  UNL1        0.0309
     17 C         138.7841  142.9177  164.9055 C.ar    1  UNL1        0.1384
     18 CL        137.8401  143.8141  164.1602 Cl      1  UNL1       -0.0613
     19 N         138.5007  141.4481  165.0065 N.ar    1  UNL1       -0.2324
     20 C         139.4447  140.5518  165.7518 C.ar    1  UNL1        0.1013
     21 C         143.1823  138.6153  170.3052 C.3     1  UNL1        0.1166
     22 N         143.2631  137.1490  170.6107 N.3     1  UNL1       -0.2935
     23 H         143.2567  136.6608  169.7151 H       1  UNL1        0.1236
     24 C         144.4249  136.6082  171.3903 C.3     1  UNL1        0.0543
     25 C         145.5106  137.4203  172.0320 C.3     1  UNL1        0.0157
     26 C         146.4617  136.4744  172.7034 C.3     1  UNL1        0.0014
     27 C         145.9638  135.0777  172.4766 C.3     1  UNL1        0.0014
     28 C         144.7050  135.1605  171.6651 C.3     1  UNL1        0.0157
@<TRIPOS>BOND
     1     1     2    1
     2     2     3   ar
     3     3    21    1
     4    21    22    1
     5    22    24    1
     6    24    25    1
     7    25    26    1
     8    26    27    1
     9    27    28    1
    10     3     4   ar
    11     4     5   ar
    12     5     7    1
    13     7     8   ar
    14     8     9   ar
    15     9    10   ar
    16    10    11   ar
    17    11    12   ar
    18    12    13    1
    19     5     6   ar
    20     6    14    1
    21    14    15   ar
    22    15    16   ar
    23    16    17   ar
    24    17    18    1
    25    17    19   ar
    26    19    20   ar
    27     6     2   ar
    28    20    14   ar
    29    28    24    1
    30    12     7   ar
    31    22    23    1
@<TRIPOS>MOLECULE
*****
 28 31 0 0 0
SMALL
GASTEIGER

@<TRIPOS>ATOM
      1 C         143.8431  137.9218  166.6168 C.3     1  UNL1        0.0340
      2 C         142.7152  138.9099  166.5794 C.ar    1  UNL1        0.0125
      3 C         142.1348  139.6305  167.7601 C.ar    1  UNL1        0.0924
      4 N         141.0306  140.5169  167.2651 N.ar    1  UNL1       -0.1671
      5 N         140.9285  140.3442  165.7786 N.ar    1  UNL1       -0.2119
      6 C         141.9697  139.3510  165.3548 C.ar    1  UNL1        0.0832
      7 C         139.9560  141.0421  164.8746 C.ar    1  UNL1        0.1743
      8 N         140.3898  142.2472  164.0938 N.ar    1  UNL1       -0.2243
      9 C         139.4174  142.9451  163.1898 C.ar    1  UNL1        0.1006
     10 C         138.0112  142.4380  163.0666 C.ar    1  UNL1        0.0217
     11 C         137.5773  141.2329  163.8474 C.ar    1  UNL1        0.0161
     12 C         138.5498  140.5350  164.7513 C.ar    1  UNL1        0.0934
     13 CL        138.1159  139.3299  165.5321 Cl      1  UNL1       -0.0790
     14 C         142.2212  138.8814  163.9526 C.ar    1  UNL1        0.0367
     15 C         143.4231  139.3722  163.2014 C.ar    1  UNL1        0.0055
     16 C         143.6746  138.9026  161.7992 C.ar    1  UNL1        0.0309
     17 C         142.7241  137.9419  161.1482 C.ar    1  UNL1        0.1384
     18 CL        142.9756  137.4723  159.7460 Cl      1  UNL1       -0.0613
     19 N         141.5222  137.4510  161.8995 N.ar    1  UNL1       -0.2324
     20 C         141.2707  137.9207  163.3016 C.ar    1  UNL1        0.1013
     21 C         142.5804  139.4895  169.1854 C.3     1  UNL1        0.1166
     22 N         142.8226  140.7121  170.0199 N.3     1  UNL1       -0.2935
     23 H         143.6480  141.1721  169.6358 H       1  UNL1        0.1236
     24 C         141.7578  141.7619  170.1389 C.3     1  UNL1        0.0543
     25 C         140.4156  141.5871  170.7855 C.3     1  UNL1        0.0157
     26 C         139.6766  142.8880  170.6784 C.3     1  UNL1        0.0014
     27 C         140.5620  143.8668  169.9656 C.3     1  UNL1        0.0014
     28 C         141.8483  143.1708  169.6322 C.3     1  UNL1        0.0157
@<TRIPOS>BOND
     1     1     2    1
     2     2     3   ar
     3     3    21    1
     4    21    22    1
     5    22    24    1
     6    24    25    1
     7    25    26    1
     8    26    27    1
     9    27    28    1
    10     3     4   ar
    11     4     5   ar
    12     5     7    1
    13     7     8   ar
    14     8     9   ar
    15     9    10   ar
    16    10    11   ar
    17    11    12   ar
    18    12    13    1
    19     5     6   ar
    20     6    14    1
    21    14    15   ar
    22    15    16   ar
    23    16    17   ar
    24    17    18    1
    25    17    19   ar
    26    19    20   ar
    27     6     2   ar
    28    20    14   ar
    29    28    24    1
    30    12     7   ar
    31    22    23    1
@<TRIPOS>MOLECULE
*****
 28 31 0 0 0
SMALL
GASTEIGER

@<TRIPOS>ATOM
      1 C         143.3600  138.8230  166.3279 C.3     1  UNL1        0.0340
      2 C         142.8910  139.3690  165.0119 C.ar    1  UNL1        0.0125
      3 C         143.7642  139.9261  163.9268 C.ar    1  UNL1        0.0924
      4 N         142.8793  140.3551  162.7942 N.ar    1  UNL1       -0.1671
      5 N         141.4592  140.0632  163.1792 N.ar    1  UNL1       -0.2119
      6 C         141.4665  139.4537  164.5498 C.ar    1  UNL1        0.0832
      7 C         140.2450  140.3333  162.3408 C.ar    1  UNL1        0.1743
      8 N         139.5904  141.6823  162.3817 N.ar    1  UNL1       -0.2243
      9 C         138.3763  141.9524  161.5433 C.ar    1  UNL1        0.1006
     10 C         137.8168  140.8736  160.6640 C.ar    1  UNL1        0.0217
     11 C         138.4715  139.5246  160.6232 C.ar    1  UNL1        0.0161
     12 C         139.6856  139.2545  161.4615 C.ar    1  UNL1        0.0934
     13 CL        140.3403  137.9055  161.4207 Cl      1  UNL1       -0.0790
     14 C         140.2609  139.0074  165.3227 C.ar    1  UNL1        0.0367
     15 C         139.5441  137.7487  164.9333 C.ar    1  UNL1        0.0055
     16 C         138.3385  137.3023  165.7062 C.ar    1  UNL1        0.0309
     17 C         137.8497  138.1148  166.8685 C.ar    1  UNL1        0.1384
     18 CL        136.6441  137.6685  167.6414 Cl      1  UNL1       -0.0613
     19 N         138.5665  139.3736  167.2579 N.ar    1  UNL1       -0.2324
     20 C         139.7721  139.8200  166.4850 C.ar    1  UNL1        0.1013
     21 C         145.2597  140.0350  163.9673 C.3     1  UNL1        0.1166
     22 N         145.9151  141.3833  163.9170 N.3     1  UNL1       -0.2935
     23 H         146.5262  141.3833  163.1003 H       1  UNL1        0.1236
     24 C         145.0749  142.6228  163.8292 C.3     1  UNL1        0.0543
     25 C         144.6534  143.3147  162.5667 C.3     1  UNL1        0.0157
     26 C         143.8266  144.5075  162.9457 C.3     1  UNL1        0.0014
     27 C         143.7371  144.5529  164.4423 C.3     1  UNL1        0.0014
     28 C         144.5086  143.3880  164.9883 C.3     1  UNL1        0.0157
@<TRIPOS>BOND
     1     1     2    1
     2     2     3   ar
     3     3    21    1
     4    21    22    1
     5    22    24    1
     6    24    25    1
     7    25    26    1
     8    26    27    1
     9    27    28    1
    10     3     4   ar
    11     4     5   ar
    12     5     7    1
    13     7     8   ar
    14     8     9   ar
    15     9    10   ar
    16    10    11   ar
    17    11    12   ar
    18    12    13    1
    19     5     6   ar
    20     6    14    1
    21    14    15   ar
    22    15    16   ar
    23    16    17   ar
    24    17    18    1
    25    17    19   ar
    26    19    20   ar
    27     6     2   ar
    28    20    14   ar
    29    28    24    1
    30    12     7   ar
    31    22    23    1
@<TRIPOS>MOLECULE
*****
 28 31 0 0 0
SMALL
GASTEIGER

@<TRIPOS>ATOM
      1 C         142.8152  142.2526  167.1344 C.3     1  UNL1        0.0340
      2 C         142.2098  141.1002  166.3891 C.ar    1  UNL1        0.0125
      3 C         142.2905  139.6552  166.7834 C.ar    1  UNL1        0.0924
      4 N         141.5480  138.8525  165.7566 N.ar    1  UNL1       -0.1671
      5 N         141.0085  139.8013  164.7278 N.ar    1  UNL1       -0.2119
      6 C         141.4175  141.1905  165.1186 C.ar    1  UNL1        0.0832
      7 C         140.2015  139.4267  163.5200 C.ar    1  UNL1        0.1743
      8 N         140.8762  138.8178  162.3266 N.ar    1  UNL1       -0.2243
      9 C         140.0694  138.4432  161.1189 C.ar    1  UNL1        0.1006
     10 C         138.5879  138.6775  161.1045 C.ar    1  UNL1        0.0217
     11 C         137.9132  139.2864  162.2979 C.ar    1  UNL1        0.0161
     12 C         138.7200  139.6610  163.5056 C.ar    1  UNL1        0.0934
     13 CL        138.0454  140.2699  164.6990 Cl      1  UNL1       -0.0790
     14 C         141.0915  142.4490  164.3705 C.ar    1  UNL1        0.0367
     15 C         140.0555  143.3927  164.9054 C.ar    1  UNL1        0.0055
     16 C         139.7295  144.6512  164.1573 C.ar    1  UNL1        0.0309
     17 C         140.4395  144.9662  162.8740 C.ar    1  UNL1        0.1384
     18 CL        140.1135  146.2247  162.1259 Cl      1  UNL1       -0.0613
     19 N         141.4755  144.0225  162.3390 N.ar    1  UNL1       -0.2324
     20 C         141.8015  142.7639  163.0872 C.ar    1  UNL1        0.1013
     21 C         142.9906  139.1089  167.9923 C.3     1  UNL1        0.1166
     22 N         142.2584  138.9974  169.2966 N.3     1  UNL1       -0.2935
     23 H         142.9650  138.8690  170.0209 H       1  UNL1        0.1236
     24 C         141.3672  140.1139  169.7541 C.3     1  UNL1        0.0543
     25 C         141.7734  141.2661  170.6245 C.3     1  UNL1        0.0157
     26 C         140.5706  142.1385  170.8299 C.3     1  UNL1        0.0014
     27 C         139.4210  141.5254  170.0866 C.3     1  UNL1        0.0014
     28 C         139.9133  140.2741  169.4218 C.3     1  UNL1        0.0157
@<TRIPOS>BOND
     1     1     2    1
     2     2     3   ar
     3     3    21    1
     4    21    22    1
     5    22    24    1
     6    24    25    1
     7    25    26    1
     8    26    27    1
     9    27    28    1
    10     3     4   ar
    11     4     5   ar
    12     5     7    1
    13     7     8   ar
    14     8     9   ar
    15     9    10   ar
    16    10    11   ar
    17    11    12   ar
    18    12    13    1
    19     5     6   ar
    20     6    14    1
    21    14    15   ar
    22    15    16   ar
    23    16    17   ar
    24    17    18    1
    25    17    19   ar
    26    19    20   ar
    27     6     2   ar
    28    20    14   ar
    29    28    24    1
    30    12     7   ar
    31    22    23    1
@<TRIPOS>MOLECULE
*****
 28 31 0 0 0
SMALL
GASTEIGER

@<TRIPOS>ATOM
      1 C         143.1159  138.2522  166.0467 C.3     1  UNL1        0.0340
      2 C         142.2717  139.1576  165.1995 C.ar    1  UNL1        0.0125
      3 C         142.1567  139.1124  163.7046 C.ar    1  UNL1        0.0924
      4 N         141.2083  140.1940  163.2798 N.ar    1  UNL1       -0.1671
      5 N         140.7372  140.9078  164.5121 N.ar    1  UNL1       -0.2119
      6 C         141.3944  140.2673  165.6986 C.ar    1  UNL1        0.0832
      7 C         139.7773  142.0599  164.5510 C.ar    1  UNL1        0.1743
      8 N         138.3016  141.8102  164.4522 N.ar    1  UNL1       -0.2243
      9 C         137.3417  142.9621  164.4911 C.ar    1  UNL1        0.1006
     10 C         137.8576  144.3638  164.6290 C.ar    1  UNL1        0.0217
     11 C         139.3334  144.6135  164.7278 C.ar    1  UNL1        0.0161
     12 C         140.2932  143.4616  164.6889 C.ar    1  UNL1        0.0934
     13 CL        141.7690  143.7113  164.7877 Cl      1  UNL1       -0.0790
     14 C         141.2073  140.6663  167.1323 C.ar    1  UNL1        0.0367
     15 C         139.9692  140.2519  167.8707 C.ar    1  UNL1        0.0055
     16 C         139.7820  140.6509  169.3045 C.ar    1  UNL1        0.0309
     17 C         140.8330  141.4644  170.0000 C.ar    1  UNL1        0.1384
     18 CL        140.6458  141.8634  171.4337 Cl      1  UNL1       -0.0613
     19 N         142.0712  141.8788  169.2615 N.ar    1  UNL1       -0.2324
     20 C         142.2584  141.4798  167.8277 C.ar    1  UNL1        0.1013
     21 C         142.8656  138.1537  162.7944 C.3     1  UNL1        0.1166
     22 N         144.0744  138.6021  162.0277 N.3     1  UNL1       -0.2935
     23 H         143.9019  138.3768  161.0480 H       1  UNL1        0.1236
     24 C         144.5006  140.0396  162.0730 C.3     1  UNL1        0.0543
     25 C         144.2823  141.0584  160.9938 C.3     1  UNL1        0.0157
     26 C         144.8666  142.3591  161.4592 C.3     1  UNL1        0.0014
     27 C         145.4461  142.1442  162.8260 C.3     1  UNL1        0.0014
     28 C         145.2198  140.7107  163.2053 C.3     1  UNL1        0.0157
@<TRIPOS>BOND
     1     1     2    1
     2     2     3   ar
     3     3    21    1
     4    21    22    1
     5    22    24    1
     6    24    25    1
     7    25    26    1
     8    26    27    1
     9    27    28    1
    10     3     4   ar
    11     4     5   ar
    12     5     7    1
    13     7     8   ar
    14     8     9   ar
    15     9    10   ar
    16    10    11   ar
    17    11    12   ar
    18    12    13    1
    19     5     6   ar
    20     6    14    1
    21    14    15   ar
    22    15    16   ar
    23    16    17   ar
    24    17    18    1
    25    17    19   ar
    26    19    20   ar
    27     6     2   ar
    28    20    14   ar
    29    28    24    1
    30    12     7   ar
    31    22    23    1
@<TRIPOS>MOLECULE
*****
 28 31 0 0 0
SMALL
GASTEIGER

@<TRIPOS>ATOM
      1 C         138.6462  139.2242  166.1031 C.3     1  UNL1        0.0340
      2 C         139.2937  140.0990  165.0708 C.ar    1  UNL1        0.0125
      3 C         139.0366  140.0577  163.5935 C.ar    1  UNL1        0.0924
      4 N         139.8959  141.1018  162.9443 N.ar    1  UNL1       -0.1671
      5 N         140.6840  141.7883  164.0203 N.ar    1  UNL1       -0.2119
      6 C         140.3118  141.1685  165.3346 C.ar    1  UNL1        0.0832
      7 C         141.6710  142.8995  163.8176 C.ar    1  UNL1        0.1743
      8 N         143.0801  142.5859  163.4098 N.ar    1  UNL1       -0.2243
      9 C         144.0671  143.6971  163.2071 C.ar    1  UNL1        0.1006
     10 C         143.6451  145.1218  163.4122 C.ar    1  UNL1        0.0217
     11 C         142.2361  145.4353  163.8200 C.ar    1  UNL1        0.0161
     12 C         141.2490  144.3242  164.0227 C.ar    1  UNL1        0.0934
     13 CL        139.8400  144.6378  164.4305 Cl      1  UNL1       -0.0790
     14 C         140.8611  141.5510  166.6769 C.ar    1  UNL1        0.0367
     15 C         140.2333  142.6704  167.4530 C.ar    1  UNL1        0.0055
     16 C         140.7826  143.0530  168.7954 C.ar    1  UNL1        0.0309
     17 C         141.9600  142.3160  169.3616 C.ar    1  UNL1        0.1384
     18 CL        142.5094  142.6985  170.7039 Cl      1  UNL1       -0.0613
     19 N         142.5879  141.1964  168.5854 N.ar    1  UNL1       -0.2324
     20 C         142.0386  140.8139  167.2431 C.ar    1  UNL1        0.1013
     21 C         138.0871  139.1346  162.8892 C.3     1  UNL1        0.1166
     22 N         138.6175  137.9949  162.0708 N.3     1  UNL1       -0.2935
     23 H         138.0231  137.9239  161.2449 H       1  UNL1        0.1236
     24 C         140.0357  138.0182  161.5829 C.3     1  UNL1        0.0543
     25 C         140.4963  138.4831  160.2331 C.3     1  UNL1        0.0157
     26 C         141.9876  138.3330  160.1751 C.3     1  UNL1        0.0014
     27 C         142.4488  137.7753  161.4890 C.3     1  UNL1        0.0014
     28 C         141.2424  137.5808  162.3590 C.3     1  UNL1        0.0157
@<TRIPOS>BOND
     1     1     2    1
     2     2     3   ar
     3     3    21    1
     4    21    22    1
     5    22    24    1
     6    24    25    1
     7    25    26    1
     8    26    27    1
     9    27    28    1
    10     3     4   ar
    11     4     5   ar
    12     5     7    1
    13     7     8   ar
    14     8     9   ar
    15     9    10   ar
    16    10    11   ar
    17    11    12   ar
    18    12    13    1
    19     5     6   ar
    20     6    14    1
    21    14    15   ar
    22    15    16   ar
    23    16    17   ar
    24    17    18    1
    25    17    19   ar
    26    19    20   ar
    27     6     2   ar
    28    20    14   ar
    29    28    24    1
    30    12     7   ar
    31    22    23    1
