@<TRIPOS>MOLECULE
*****
 42 47 0 0 0
SMALL
GASTEIGER

@<TRIPOS>ATOM
      1 N         142.7670  139.7500  162.0004 N.am    1  UNL1       -0.1907
      2 C         142.1810  138.6511  161.1644 C.2     1  UNL1        0.3219
      3 O         141.4612  137.4400  161.6792 O.2     1  UNL1       -0.2512
      4 N         142.4411  138.9759  159.7233 N.am    1  UNL1       -0.2222
      5 C         143.1880  140.2756  159.6686 C.3     1  UNL1        0.1391
      6 C         143.9275  141.5767  159.7707 C.3     1  UNL1        0.0449
      7 C         144.3914  142.2752  158.5271 C.3     1  UNL1        0.0746
      8 N         144.1159  141.6728  157.1813 N.3     1  UNL1       -0.2676
      9 C         143.3764  140.3718  157.0791 C.3     1  UNL1        0.0746
     10 C         142.9124  139.6732  158.3228 C.3     1  UNL1        0.0449
     11 C         143.3894  140.7541  161.0759 C.2     1  UNL1        0.2529
     12 O         144.0901  142.0152  161.4866 O.2     1  UNL1       -0.2724
     13 C         142.0272  138.1466  158.5440 C.ar    1  UNL1        0.1453
     14 C         140.6541  138.3044  157.9610 C.ar    1  UNL1        0.0922
     15 C         140.2403  137.4751  156.7816 C.ar    1  UNL1        0.2259
     16 O         138.8672  137.6329  156.1986 O.3     1  UNL1       -0.4919
     17 N         141.1994  136.4880  156.1851 N.ar    1  UNL1       -0.1894
     18 C         142.5724  136.3302  156.7681 C.ar    1  UNL1        0.2027
     19 N         142.9863  137.1595  157.9475 N.ar    1  UNL1       -0.2084
     20 H         138.2681  138.2496  156.5712 H       1  UNL1        0.2938
     21 C         142.6744  139.9924  166.4929 C.ar    1  UNL1        0.0392
     22 C         143.4817  138.9247  165.8159 C.ar    1  UNL1        0.0044
     23 C         143.5126  138.8439  164.3184 C.ar    1  UNL1        0.0155
     24 C         142.7362  139.8308  163.4979 C.ar    1  UNL1        0.0622
     25 C         141.9290  140.8985  164.1749 C.ar    1  UNL1        0.0155
     26 C         141.8981  140.9792  165.6724 C.ar    1  UNL1        0.0044
     27 C         142.3443  140.9026  170.2516 C.ar    1  UNL1        0.2668
     28 N         142.2181  141.2616  168.8007 N.ar    1  UNL1       -0.1886
     29 C         142.6436  140.0731  167.9904 C.ar    1  UNL1        0.2034
     30 N         143.0327  138.9797  168.9406 N.ar    1  UNL1       -0.0559
     31 O         142.8478  139.4923  170.3381 O.2     1  UNL1       -0.3344
     32 C         142.0234  141.7970  171.4123 C.3     1  UNL1        0.2300
     33 C         139.7332  142.7995  170.7051 C.3     1  UNL1        0.1748
     34 O         140.5956  142.1275  171.7320 O.3     1  UNL1       -0.3416
     35 C         144.5798  142.3714  155.9376 C.3     1  UNL1        0.1183
     36 C         145.9861  142.1822  155.4514 C.ar    1  UNL1        0.0712
     37 N         147.1325  142.2849  156.4133 N.ar    1  UNL1       -0.2471
     38 C         148.5389  142.0957  155.9270 C.ar    1  UNL1        0.0985
     39 C         148.7988  141.8038  154.4788 C.ar    1  UNL1        0.0203
     40 C         147.6525  141.7012  153.5169 C.ar    1  UNL1       -0.0015
     41 C         146.2461  141.8904  154.0031 C.ar    1  UNL1       -0.0069
     42 C         145.0998  141.7878  153.0412 C.3     1  UNL1        0.0323
@<TRIPOS>BOND
     1    33    34    1
     2    34    32    1
     3    32    27    1
     4    27    28   ar
     5    28    29   ar
     6    29    21    1
     7    21    22   ar
     8    22    23   ar
     9    23    24   ar
    10    24     1    1
    11     1     2   am
    12     2     3    2
    13     2     4   am
    14     4    13    1
    15    13    14   ar
    16    14    15   ar
    17    15    16    1
    18    15    17   ar
    19    17    18   ar
    20    18    19   ar
    21     4     5    1
    22     5     6    1
    23     6     7    1
    24     7     8    1
    25     8    35    1
    26    35    36    1
    27    36    37   ar
    28    37    38   ar
    29    38    39   ar
    30    39    40   ar
    31    40    41   ar
    32    41    42    1
    33     8     9    1
    34     9    10    1
    35     5    11    1
    36    11    12    2
    37    24    25   ar
    38    25    26   ar
    39    29    30   ar
    40    30    31   ar
    41    31    27   ar
    42    26    21   ar
    43    11     1   am
    44    19    13   ar
    45    10     5    1
    46    41    36   ar
    47    16    20    1
@<TRIPOS>MOLECULE
*****
 42 47 0 0 0
SMALL
GASTEIGER

@<TRIPOS>ATOM
      1 N         139.5860  140.1547  161.9840 N.am    1  UNL1       -0.1907
      2 C         138.6393  140.9143  161.1026 C.2     1  UNL1        0.3219
      3 O         137.5322  141.8138  161.5664 O.2     1  UNL1       -0.2512
      4 N         138.9941  140.6164  159.6759 N.am    1  UNL1       -0.2222
      5 C         140.1602  139.6727  159.6755 C.3     1  UNL1        0.1391
      6 C         141.3203  138.7350  159.8320 C.3     1  UNL1        0.0449
      7 C         142.0010  138.1750  158.6183 C.3     1  UNL1        0.0746
      8 N         141.5215  138.5528  157.2482 N.3     1  UNL1       -0.2676
      9 C         140.3613  139.4906  157.0917 C.3     1  UNL1        0.0746
     10 C         139.6807  140.0506  158.3054 C.3     1  UNL1        0.0449
     11 C         140.5260  139.3874  161.1020 C.2     1  UNL1        0.2529
     12 O         141.6366  138.4920  161.5652 O.2     1  UNL1       -0.2724
     13 C         138.3042  141.1658  158.4626 C.ar    1  UNL1        0.1453
     14 C         138.7588  142.4641  157.8646 C.ar    1  UNL1        0.0922
     15 C         138.0688  143.0133  156.6512 C.ar    1  UNL1        0.2259
     16 O         138.5235  144.3116  156.0532 O.3     1  UNL1       -0.4919
     17 N         136.9241  142.2643  156.0359 N.ar    1  UNL1       -0.1894
     18 C         136.4694  140.9660  156.6339 C.ar    1  UNL1        0.2027
     19 N         137.1595  140.4167  157.8472 N.ar    1  UNL1       -0.2084
     20 H         139.2385  144.7795  156.4376 H       1  UNL1        0.2938
     21 C         139.6032  140.1745  166.4839 C.ar    1  UNL1        0.0392
     22 C         138.4345  139.5983  165.7409 C.ar    1  UNL1        0.0044
     23 C         138.4287  139.5918  164.2409 C.ar    1  UNL1        0.0155
     24 C         139.5917  140.1613  163.4840 C.ar    1  UNL1        0.0622
     25 C         140.7604  140.7374  164.2269 C.ar    1  UNL1        0.0155
     26 C         140.7662  140.7440  165.7269 C.ar    1  UNL1        0.0044
     27 C         140.2770  140.5489  170.2880 C.ar    1  UNL1        0.2668
     28 N         140.6790  140.7637  168.8589 N.ar    1  UNL1       -0.1886
     29 C         139.6090  140.1810  167.9838 C.ar    1  UNL1        0.2034
     30 N         138.5458  139.6061  168.8721 N.ar    1  UNL1       -0.0559
     31 O         138.9587  139.8334  170.2962 O.2     1  UNL1       -0.3344
     32 C         141.0566  140.9747  171.4967 C.3     1  UNL1        0.2300
     33 C         142.6460  142.8658  170.6920 C.3     1  UNL1        0.1748
     34 O         141.5594  142.3837  171.6067 O.3     1  UNL1       -0.3416
     35 C         142.2022  137.9928  156.0344 C.3     1  UNL1        0.1183
     36 C         142.3503  136.5087  155.8753 C.ar    1  UNL1        0.0712
     37 N         143.6086  135.8278  156.3260 N.ar    1  UNL1       -0.2471
     38 C         143.7566  134.3436  156.1669 C.ar    1  UNL1        0.0985
     39 C         142.6463  133.5403  155.5571 C.ar    1  UNL1        0.0203
     40 C         141.3880  134.2211  155.1064 C.ar    1  UNL1       -0.0015
     41 C         141.2399  135.7053  155.2655 C.ar    1  UNL1       -0.0069
     42 C         139.9816  136.3861  154.8148 C.3     1  UNL1        0.0323
@<TRIPOS>BOND
     1    33    34    1
     2    34    32    1
     3    32    27    1
     4    27    28   ar
     5    28    29   ar
     6    29    21    1
     7    21    22   ar
     8    22    23   ar
     9    23    24   ar
    10    24     1    1
    11     1     2   am
    12     2     3    2
    13     2     4   am
    14     4    13    1
    15    13    14   ar
    16    14    15   ar
    17    15    16    1
    18    15    17   ar
    19    17    18   ar
    20    18    19   ar
    21     4     5    1
    22     5     6    1
    23     6     7    1
    24     7     8    1
    25     8    35    1
    26    35    36    1
    27    36    37   ar
    28    37    38   ar
    29    38    39   ar
    30    39    40   ar
    31    40    41   ar
    32    41    42    1
    33     8     9    1
    34     9    10    1
    35     5    11    1
    36    11    12    2
    37    24    25   ar
    38    25    26   ar
    39    29    30   ar
    40    30    31   ar
    41    31    27   ar
    42    26    21   ar
    43    11     1   am
    44    19    13   ar
    45    10     5    1
    46    41    36   ar
    47    16    20    1
@<TRIPOS>MOLECULE
*****
 42 47 0 0 0
SMALL
GASTEIGER

@<TRIPOS>ATOM
      1 N         143.3486  141.7807  160.5657 N.am    1  UNL1       -0.1907
      2 C         141.9931  142.4093  160.6986 C.2     1  UNL1        0.3219
      3 O         141.2409  143.1207  159.6133 O.2     1  UNL1       -0.2512
      4 N         141.5219  142.2015  162.1075 N.am    1  UNL1       -0.2222
      5 C         142.5862  141.4445  162.8454 C.3     1  UNL1        0.1391
      6 C         143.7326  140.6888  163.4493 C.3     1  UNL1        0.0449
      7 C         143.6775  140.2662  164.8874 C.3     1  UNL1        0.0746
      8 N         142.4762  140.5992  165.7216 N.3     1  UNL1       -0.2676
      9 C         141.3298  141.3548  165.1176 C.3     1  UNL1        0.0746
     10 C         141.3849  141.7775  163.6795 C.3     1  UNL1        0.0449
     11 C         143.7152  141.1845  161.8925 C.2     1  UNL1        0.2529
     12 O         144.9873  140.4561  162.2105 O.2     1  UNL1       -0.2724
     13 C         140.2159  142.6686  162.6783 C.ar    1  UNL1        0.1453
     14 C         139.0097  141.7790  162.6175 C.ar    1  UNL1        0.0922
     15 C         137.7037  142.2462  163.1884 C.ar    1  UNL1        0.2259
     16 O         136.4975  141.3566  163.1276 O.3     1  UNL1       -0.4919
     17 N         137.6037  143.6031  163.8201 N.ar    1  UNL1       -0.1894
     18 C         138.8099  144.4927  163.8809 C.ar    1  UNL1        0.2027
     19 N         140.1159  144.0255  163.3100 N.ar    1  UNL1       -0.2084
     20 H         136.5599  140.5090  162.7330 H       1  UNL1        0.2938
     21 C         145.8723  141.6983  156.8409 C.ar    1  UNL1        0.0392
     22 C         144.8596  140.6189  157.0849 C.ar    1  UNL1        0.0044
     23 C         144.0184  140.6463  158.3264 C.ar    1  UNL1        0.0155
     24 C         144.1898  141.7532  159.3241 C.ar    1  UNL1        0.0622
     25 C         145.2024  142.8326  159.0802 C.ar    1  UNL1        0.0155
     26 C         146.0436  142.8051  157.8386 C.ar    1  UNL1        0.0044
     27 C         148.5873  141.9073  154.0750 C.ar    1  UNL1        0.2668
     28 N         148.1452  142.1058  155.4945 N.ar    1  UNL1       -0.1886
     29 C         146.7135  141.6708  155.5993 C.ar    1  UNL1        0.2034
     30 N         146.2707  141.2035  154.2445 N.ar    1  UNL1       -0.0559
     31 O         147.4288  141.3497  153.3024 O.2     1  UNL1       -0.3344
     32 C         149.9488  142.2129  153.5246 C.3     1  UNL1        0.2300
     33 C         151.7272  144.0333  153.0019 C.3     1  UNL1        0.1748
     34 O         150.2915  143.6115  153.1048 O.3     1  UNL1       -0.3416
     35 C         142.4212  140.1764  167.1598 C.3     1  UNL1        0.1183
     36 C         141.8503  141.1025  168.1924 C.ar    1  UNL1        0.0712
     37 N         142.7146  142.1617  168.8098 N.ar    1  UNL1       -0.2471
     38 C         142.1436  143.0878  169.8425 C.ar    1  UNL1        0.0985
     39 C         140.7084  142.9548  170.2577 C.ar    1  UNL1        0.0203
     40 C         139.8441  141.8956  169.6403 C.ar    1  UNL1       -0.0015
     41 C         140.4150  140.9695  168.6077 C.ar    1  UNL1       -0.0069
     42 C         139.5507  139.9103  167.9903 C.3     1  UNL1        0.0323
@<TRIPOS>BOND
     1    33    34    1
     2    34    32    1
     3    32    27    1
     4    27    28   ar
     5    28    29   ar
     6    29    21    1
     7    21    22   ar
     8    22    23   ar
     9    23    24   ar
    10    24     1    1
    11     1     2   am
    12     2     3    2
    13     2     4   am
    14     4    13    1
    15    13    14   ar
    16    14    15   ar
    17    15    16    1
    18    15    17   ar
    19    17    18   ar
    20    18    19   ar
    21     4     5    1
    22     5     6    1
    23     6     7    1
    24     7     8    1
    25     8    35    1
    26    35    36    1
    27    36    37   ar
    28    37    38   ar
    29    38    39   ar
    30    39    40   ar
    31    40    41   ar
    32    41    42    1
    33     8     9    1
    34     9    10    1
    35     5    11    1
    36    11    12    2
    37    24    25   ar
    38    25    26   ar
    39    29    30   ar
    40    30    31   ar
    41    31    27   ar
    42    26    21   ar
    43    11     1   am
    44    19    13   ar
    45    10     5    1
    46    41    36   ar
    47    16    20    1
@<TRIPOS>MOLECULE
*****
 42 47 0 0 0
SMALL
GASTEIGER

@<TRIPOS>ATOM
      1 N         141.0225  139.3528  160.6662 N.am    1  UNL1       -0.1907
      2 C         140.4329  140.7170  160.8695 C.2     1  UNL1        0.3219
      3 O         139.8523  141.5947  159.8007 O.2     1  UNL1       -0.2512
      4 N         140.5259  141.0494  162.3293 N.am    1  UNL1       -0.2222
      5 C         141.1730  139.8905  163.0282 C.3     1  UNL1        0.1391
      6 C         141.8283  138.6622  163.5866 C.3     1  UNL1        0.0449
      7 C         142.1176  138.5684  165.0554 C.3     1  UNL1        0.0746
      8 N         141.7517  139.7030  165.9659 N.3     1  UNL1       -0.2676
      9 C         141.0964  140.9313  165.4075 C.3     1  UNL1        0.0746
     10 C         140.8071  141.0251  163.9387 C.3     1  UNL1        0.0449
     11 C         141.4799  138.8420  162.0004 C.2     1  UNL1        0.2529
     12 O         142.1301  137.5156  162.2610 O.2     1  UNL1       -0.2724
     13 C         140.0547  142.3178  162.9765 C.ar    1  UNL1        0.1453
     14 C         140.9735  143.4999  163.0672 C.ar    1  UNL1        0.0922
     15 C         140.5022  144.7683  163.7145 C.ar    1  UNL1        0.2259
     16 O         141.4211  145.9504  163.8053 O.3     1  UNL1       -0.4919
     17 N         139.1119  144.8546  164.2711 N.ar    1  UNL1       -0.1894
     18 C         138.1930  143.6725  164.1803 C.ar    1  UNL1        0.2027
     19 N         138.6644  142.4041  163.5330 N.ar    1  UNL1       -0.2084
     20 H         142.2895  145.8965  163.4576 H       1  UNL1        0.2938
     21 C         141.3599  137.1748  156.7429 C.ar    1  UNL1        0.0392
     22 C         142.5761  137.3713  157.5987 C.ar    1  UNL1        0.0044
     23 C         142.4637  138.0973  158.9064 C.ar    1  UNL1        0.0155
     24 C         141.1350  138.6268  159.3584 C.ar    1  UNL1        0.0622
     25 C         139.9189  138.4303  158.5027 C.ar    1  UNL1        0.0155
     26 C         140.0314  137.7043  157.1950 C.ar    1  UNL1        0.0044
     27 C         141.5164  134.6810  153.7727 C.ar    1  UNL1        0.2668
     28 N         141.3297  134.9694  155.2328 N.ar    1  UNL1       -0.1886
     29 C         141.4724  136.4489  155.4351 C.ar    1  UNL1        0.2034
     30 N         141.7473  137.0748  154.1000 N.ar    1  UNL1       -0.0559
     31 O         141.7745  135.9822  153.0726 O.2     1  UNL1       -0.3344
     32 C         141.4557  133.3289  153.1263 C.3     1  UNL1        0.2300
     33 C         143.1877  131.9218  154.4567 C.3     1  UNL1        0.1748
     34 O         142.6576  132.4318  153.1495 O.3     1  UNL1       -0.3416
     35 C         142.0410  139.6092  167.4347 C.3     1  UNL1        0.1183
     36 C         141.2541  140.4353  168.4085 C.ar    1  UNL1        0.0712
     37 N         139.9511  139.9221  168.9461 N.ar    1  UNL1       -0.2471
     38 C         139.1641  140.7483  169.9198 C.ar    1  UNL1        0.0985
     39 C         139.6801  142.0875  170.3559 C.ar    1  UNL1        0.0203
     40 C         140.9830  142.6007  169.8183 C.ar    1  UNL1       -0.0015
     41 C         141.7700  141.7746  168.8446 C.ar    1  UNL1       -0.0069
     42 C         143.0729  142.2877  168.3070 C.3     1  UNL1        0.0323
@<TRIPOS>BOND
     1    33    34    1
     2    34    32    1
     3    32    27    1
     4    27    28   ar
     5    28    29   ar
     6    29    21    1
     7    21    22   ar
     8    22    23   ar
     9    23    24   ar
    10    24     1    1
    11     1     2   am
    12     2     3    2
    13     2     4   am
    14     4    13    1
    15    13    14   ar
    16    14    15   ar
    17    15    16    1
    18    15    17   ar
    19    17    18   ar
    20    18    19   ar
    21     4     5    1
    22     5     6    1
    23     6     7    1
    24     7     8    1
    25     8    35    1
    26    35    36    1
    27    36    37   ar
    28    37    38   ar
    29    38    39   ar
    30    39    40   ar
    31    40    41   ar
    32    41    42    1
    33     8     9    1
    34     9    10    1
    35     5    11    1
    36    11    12    2
    37    24    25   ar
    38    25    26   ar
    39    29    30   ar
    40    30    31   ar
    41    31    27   ar
    42    26    21   ar
    43    11     1   am
    44    19    13   ar
    45    10     5    1
    46    41    36   ar
    47    16    20    1
@<TRIPOS>MOLECULE
*****
 42 47 0 0 0
SMALL
GASTEIGER

@<TRIPOS>ATOM
      1 N         141.4319  139.3910  160.4336 N.am    1  UNL1       -0.1907
      2 C         142.0021  140.7726  160.5614 C.2     1  UNL1        0.3219
      3 O         142.6191  141.5773  159.4562 O.2     1  UNL1       -0.2512
      4 N         141.8469  141.2081  161.9883 N.am    1  UNL1       -0.2222
      5 C         141.1808  140.0956  162.7426 C.3     1  UNL1        0.1391
      6 C         140.5128  138.9037  163.3615 C.3     1  UNL1        0.0449
      7 C         140.1643  138.9127  164.8204 C.3     1  UNL1        0.0746
      8 N         140.4839  140.1136  165.6605 N.3     1  UNL1       -0.2676
      9 C         141.1519  141.3056  165.0416 C.3     1  UNL1        0.0746
     10 C         141.5003  141.2965  163.5827 C.3     1  UNL1        0.0449
     11 C         140.9243  138.9727  161.7818 C.2     1  UNL1        0.2529
     12 O         140.2744  137.6615  162.1112 O.2     1  UNL1       -0.2724
     13 C         142.2815  142.5247  162.5606 C.ar    1  UNL1        0.1453
     14 C         141.3787  143.7187  162.4650 C.ar    1  UNL1        0.0922
     15 C         141.8133  145.0354  163.0373 C.ar    1  UNL1        0.2259
     16 O         140.9105  146.2294  162.9416 O.3     1  UNL1       -0.4919
     17 N         143.1508  145.1580  163.7054 N.ar    1  UNL1       -0.1894
     18 C         144.0536  143.9639  163.8010 C.ar    1  UNL1        0.2027
     19 N         143.6189  142.6473  163.2287 N.ar    1  UNL1       -0.2084
     20 H         140.0750  146.1528  162.5243 H       1  UNL1        0.2938
     21 C         141.2723  136.9332  156.6676 C.ar    1  UNL1        0.0392
     22 C         142.5573  137.0512  157.4323 C.ar    1  UNL1        0.0044
     23 C         142.6106  137.8705  158.6876 C.ar    1  UNL1        0.0155
     24 C         141.3787  138.5717  159.1783 C.ar    1  UNL1        0.0622
     25 C         140.0937  138.4537  158.4137 C.ar    1  UNL1        0.0155
     26 C         140.0405  137.6344  157.1583 C.ar    1  UNL1        0.0044
     27 C         141.6013  134.3509  153.7885 C.ar    1  UNL1        0.2668
     28 N         141.9389  134.8198  155.1728 N.ar    1  UNL1       -0.1886
     29 C         141.2190  136.1139  155.4123 C.ar    1  UNL1        0.2034
     30 N         140.4367  136.4447  154.1760 N.ar    1  UNL1       -0.0559
     31 O         140.6730  135.3552  153.1725 O.2     1  UNL1       -0.3344
     32 C         142.1040  133.0978  153.1351 C.3     1  UNL1        0.2300
     33 C         142.2580  131.1962  154.8986 C.3     1  UNL1        0.1748
     34 O         142.9244  132.1190  153.9217 O.3     1  UNL1       -0.3416
     35 C         140.1354  140.1226  167.1194 C.3     1  UNL1        0.1183
     36 C         140.9356  140.9554  168.0766 C.ar    1  UNL1        0.0712
     37 N         140.3835  142.2550  168.5826 N.ar    1  UNL1       -0.2471
     38 C         141.1838  143.0878  169.5398 C.ar    1  UNL1        0.0985
     39 C         142.5360  142.6209  169.9909 C.ar    1  UNL1        0.0203
     40 C         143.0880  141.3212  169.4848 C.ar    1  UNL1       -0.0015
     41 C         142.2878  140.4885  168.5277 C.ar    1  UNL1       -0.0069
     42 C         142.8399  139.1888  168.0216 C.3     1  UNL1        0.0323
@<TRIPOS>BOND
     1    33    34    1
     2    34    32    1
     3    32    27    1
     4    27    28   ar
     5    28    29   ar
     6    29    21    1
     7    21    22   ar
     8    22    23   ar
     9    23    24   ar
    10    24     1    1
    11     1     2   am
    12     2     3    2
    13     2     4   am
    14     4    13    1
    15    13    14   ar
    16    14    15   ar
    17    15    16    1
    18    15    17   ar
    19    17    18   ar
    20    18    19   ar
    21     4     5    1
    22     5     6    1
    23     6     7    1
    24     7     8    1
    25     8    35    1
    26    35    36    1
    27    36    37   ar
    28    37    38   ar
    29    38    39   ar
    30    39    40   ar
    31    40    41   ar
    32    41    42    1
    33     8     9    1
    34     9    10    1
    35     5    11    1
    36    11    12    2
    37    24    25   ar
    38    25    26   ar
    39    29    30   ar
    40    30    31   ar
    41    31    27   ar
    42    26    21   ar
    43    11     1   am
    44    19    13   ar
    45    10     5    1
    46    41    36   ar
    47    16    20    1
@<TRIPOS>MOLECULE
*****
 42 47 0 0 0
SMALL
GASTEIGER

@<TRIPOS>ATOM
      1 N         143.8763  141.5970  159.2640 N.am    1  UNL1       -0.1907
      2 C         143.0145  142.7380  159.7175 C.2     1  UNL1        0.3219
      3 O         142.8953  144.0739  159.0461 O.2     1  UNL1       -0.2512
      4 N         142.2930  142.3084  160.9605 N.am    1  UNL1       -0.2222
      5 C         142.7088  140.9019  161.2752 C.3     1  UNL1        0.1391
      6 C         143.2157  139.5027  161.4622 C.3     1  UNL1        0.0449
      7 C         142.7370  138.6803  162.6217 C.3     1  UNL1        0.0746
      8 N         141.7514  139.2572  163.5942 N.3     1  UNL1       -0.2676
      9 C         141.2445  140.6565  163.4072 C.3     1  UNL1        0.0746
     10 C         141.7232  141.4788  162.2477 C.3     1  UNL1        0.0449
     11 C         143.6873  140.4623  160.2267 C.2     1  UNL1        0.2529
     12 O         144.3589  139.1230  160.1538 O.2     1  UNL1       -0.2724
     13 C         141.3255  143.1394  161.7501 C.ar    1  UNL1        0.1453
     14 C         139.8551  143.0499  161.4675 C.ar    1  UNL1        0.0922
     15 C         138.8877  143.8809  162.2572 C.ar    1  UNL1        0.2259
     16 O         137.4173  143.7914  161.9746 O.3     1  UNL1       -0.4919
     17 N         139.3907  144.8013  163.3295 N.ar    1  UNL1       -0.1894
     18 C         140.8611  144.8908  163.6121 C.ar    1  UNL1        0.2027
     19 N         141.8285  144.0598  162.8224 N.ar    1  UNL1       -0.2084
     20 H         137.1031  143.2164  161.3048 H       1  UNL1        0.2938
     21 C         146.5575  141.5811  155.6502 C.ar    1  UNL1        0.0392
     22 C         145.4343  140.5925  155.7550 C.ar    1  UNL1        0.0044
     23 C         144.5405  140.5978  156.9597 C.ar    1  UNL1        0.0155
     24 C         144.7700  141.5917  158.0594 C.ar    1  UNL1        0.0622
     25 C         145.8932  142.5803  157.9545 C.ar    1  UNL1        0.0155
     26 C         146.7870  142.5750  156.7499 C.ar    1  UNL1        0.0044
     27 C         149.3964  141.8130  153.0134 C.ar    1  UNL1        0.2668
     28 N         148.8985  141.9696  154.4196 N.ar    1  UNL1       -0.1886
     29 C         147.4513  141.5758  154.4455 C.ar    1  UNL1        0.2034
     30 N         147.0549  141.1758  153.0553 N.ar    1  UNL1       -0.0559
     31 O         148.2570  141.3223  152.1702 O.2     1  UNL1       -0.3344
     32 C         150.7892  142.0971  152.5345 C.3     1  UNL1        0.2300
     33 C         152.0004  144.2683  153.2887 C.3     1  UNL1        0.1748
     34 O         151.7646  142.7943  153.4358 O.3     1  UNL1       -0.3416
     35 C         141.2727  138.4347  164.7538 C.3     1  UNL1        0.1183
     36 C         141.0849  139.0721  166.0985 C.ar    1  UNL1        0.0712
     37 N         142.2712  139.3252  166.9809 N.ar    1  UNL1       -0.2471
     38 C         142.0833  139.9626  168.3257 C.ar    1  UNL1        0.0985
     39 C         140.7091  140.3470  168.7881 C.ar    1  UNL1        0.0203
     40 C         139.5228  140.0939  167.9057 C.ar    1  UNL1       -0.0015
     41 C         139.7106  139.4565  166.5610 C.ar    1  UNL1       -0.0069
     42 C         138.5243  139.2035  165.6786 C.3     1  UNL1        0.0323
@<TRIPOS>BOND
     1    33    34    1
     2    34    32    1
     3    32    27    1
     4    27    28   ar
     5    28    29   ar
     6    29    21    1
     7    21    22   ar
     8    22    23   ar
     9    23    24   ar
    10    24     1    1
    11     1     2   am
    12     2     3    2
    13     2     4   am
    14     4    13    1
    15    13    14   ar
    16    14    15   ar
    17    15    16    1
    18    15    17   ar
    19    17    18   ar
    20    18    19   ar
    21     4     5    1
    22     5     6    1
    23     6     7    1
    24     7     8    1
    25     8    35    1
    26    35    36    1
    27    36    37   ar
    28    37    38   ar
    29    38    39   ar
    30    39    40   ar
    31    40    41   ar
    32    41    42    1
    33     8     9    1
    34     9    10    1
    35     5    11    1
    36    11    12    2
    37    24    25   ar
    38    25    26   ar
    39    29    30   ar
    40    30    31   ar
    41    31    27   ar
    42    26    21   ar
    43    11     1   am
    44    19    13   ar
    45    10     5    1
    46    41    36   ar
    47    16    20    1
@<TRIPOS>MOLECULE
*****
 42 47 0 0 0
SMALL
GASTEIGER

@<TRIPOS>ATOM
      1 N         140.4148  139.9434  162.8713 N.am    1  UNL1       -0.1907
      2 C         140.4152  138.8434  161.8515 C.2     1  UNL1        0.3219
      3 O         139.9471  137.4357  162.0728 O.2     1  UNL1       -0.2512
      4 N         140.9660  139.3983  160.5714 N.am    1  UNL1       -0.2222
      5 C         141.3060  140.8414  160.8000 C.3     1  UNL1        0.1391
      6 C         141.5951  142.2644  161.1759 C.3     1  UNL1        0.0449
      7 C         142.1740  143.2053  160.1614 C.3     1  UNL1        0.0746
      8 N         142.4639  142.7232  158.7708 N.3     1  UNL1       -0.2676
      9 C         142.1749  141.3001  158.3949 C.3     1  UNL1        0.0746
     10 C         141.5959  140.3592  159.4095 C.3     1  UNL1        0.0449
     11 C         140.9653  141.1782  162.2215 C.2     1  UNL1        0.2529
     12 O         141.1438  142.5151  162.8779 O.2     1  UNL1       -0.2724
     13 C         141.1454  138.6430  159.2879 C.ar    1  UNL1        0.1453
     14 C         139.9829  138.4567  158.3585 C.ar    1  UNL1        0.0922
     15 C         140.1624  137.7014  157.0751 C.ar    1  UNL1        0.2259
     16 O         138.9998  137.5150  156.1457 O.3     1  UNL1       -0.4919
     17 N         141.5043  137.1323  156.7210 N.ar    1  UNL1       -0.1894
     18 C         142.6669  137.3187  157.6504 C.ar    1  UNL1        0.2027
     19 N         142.4874  138.0740  158.9338 N.ar    1  UNL1       -0.2084
     20 H         138.1615  137.8704  156.3668 H       1  UNL1        0.2938
     21 C         139.0088  139.5993  167.1321 C.ar    1  UNL1        0.0392
     22 C         138.1405  139.1045  166.0135 C.ar    1  UNL1        0.0044
     23 C         138.6091  139.2191  164.5933 C.ar    1  UNL1        0.0155
     24 C         139.9461  139.8287  164.2916 C.ar    1  UNL1        0.0622
     25 C         140.8143  140.3235  165.4101 C.ar    1  UNL1        0.0155
     26 C         140.3456  140.2088  166.8304 C.ar    1  UNL1        0.0044
     27 C         137.2208  138.9176  170.5091 C.ar    1  UNL1        0.2668
     28 N         137.2970  138.7853  169.0169 N.ar    1  UNL1       -0.1886
     29 C         138.5401  139.4846  168.5524 C.ar    1  UNL1        0.2034
     30 N         139.2321  140.0491  169.7575 N.ar    1  UNL1       -0.0559
     31 O         138.4168  139.6986  170.9669 O.2     1  UNL1       -0.3344
     32 C         136.1387  138.3657  171.3891 C.3     1  UNL1        0.2300
     33 C         135.7409  136.5173  173.1710 C.3     1  UNL1        0.1748
     34 O         136.1613  136.9201  171.7886 O.3     1  UNL1       -0.3416
     35 C         143.0429  143.6642  157.7562 C.3     1  UNL1        0.1183
     36 C         142.1370  144.5414  156.9440 C.ar    1  UNL1        0.0712
     37 N         141.0863  145.3683  157.6239 N.ar    1  UNL1       -0.2471
     38 C         140.1804  146.2456  156.8117 C.ar    1  UNL1        0.0985
     39 C         140.3252  146.2959  155.3195 C.ar    1  UNL1        0.0203
     40 C         141.3759  145.4690  154.6396 C.ar    1  UNL1       -0.0015
     41 C         142.2818  144.5918  155.4518 C.ar    1  UNL1       -0.0069
     42 C         143.3325  143.7649  154.7719 C.3     1  UNL1        0.0323
@<TRIPOS>BOND
     1    33    34    1
     2    34    32    1
     3    32    27    1
     4    27    28   ar
     5    28    29   ar
     6    29    21    1
     7    21    22   ar
     8    22    23   ar
     9    23    24   ar
    10    24     1    1
    11     1     2   am
    12     2     3    2
    13     2     4   am
    14     4    13    1
    15    13    14   ar
    16    14    15   ar
    17    15    16    1
    18    15    17   ar
    19    17    18   ar
    20    18    19   ar
    21     4     5    1
    22     5     6    1
    23     6     7    1
    24     7     8    1
    25     8    35    1
    26    35    36    1
    27    36    37   ar
    28    37    38   ar
    29    38    39   ar
    30    39    40   ar
    31    40    41   ar
    32    41    42    1
    33     8     9    1
    34     9    10    1
    35     5    11    1
    36    11    12    2
    37    24    25   ar
    38    25    26   ar
    39    29    30   ar
    40    30    31   ar
    41    31    27   ar
    42    26    21   ar
    43    11     1   am
    44    19    13   ar
    45    10     5    1
    46    41    36   ar
    47    16    20    1
@<TRIPOS>MOLECULE
*****
 42 47 0 0 0
SMALL
GASTEIGER

@<TRIPOS>ATOM
      1 N         139.7526  139.9650  161.5830 N.am    1  UNL1       -0.1907
      2 C         140.3674  138.8935  160.7322 C.2     1  UNL1        0.3219
      3 O         141.0268  137.6419  161.2306 O.2     1  UNL1       -0.2512
      4 N         140.2071  139.2934  159.2954 N.am    1  UNL1       -0.2222
      5 C         139.4931  140.6122  159.2582 C.3     1  UNL1        0.1391
      6 C         138.7764  141.9244  159.3779 C.3     1  UNL1        0.0449
      7 C         138.4081  142.6931  158.1436 C.3     1  UNL1        0.0746
      8 N         138.7564  142.1495  156.7897 N.3     1  UNL1       -0.2676
      9 C         139.4731  140.8372  156.6700 C.3     1  UNL1        0.0746
     10 C         139.8414  140.0686  157.9042 C.3     1  UNL1        0.0449
     11 C         139.2122  141.0272  160.6720 C.2     1  UNL1        0.2529
     12 O         138.5136  142.2838  161.0998 O.2     1  UNL1       -0.2724
     13 C         140.6780  138.5120  158.1048 C.ar    1  UNL1        0.1453
     14 C         142.1198  138.5660  157.6947 C.ar    1  UNL1        0.0922
     15 C         142.5907  137.7845  156.5041 C.ar    1  UNL1        0.2259
     16 O         144.0325  137.8385  156.0940 O.3     1  UNL1       -0.4919
     17 N         141.6197  136.9490  155.7235 N.ar    1  UNL1       -0.1894
     18 C         140.1779  136.8950  156.1336 C.ar    1  UNL1        0.2027
     19 N         139.7071  137.6765  157.3242 N.ar    1  UNL1       -0.2084
     20 H         144.6390  138.3604  156.5815 H       1  UNL1        0.2938
     21 C         139.5624  139.9887  166.0789 C.ar    1  UNL1        0.0392
     22 C         140.7777  140.5180  165.3768 C.ar    1  UNL1        0.0044
     23 C         140.8411  140.5101  163.8782 C.ar    1  UNL1        0.0155
     24 C         139.6892  139.9729  163.0816 C.ar    1  UNL1        0.0622
     25 C         138.4739  139.4437  163.7837 C.ar    1  UNL1        0.0155
     26 C         138.4105  139.4516  165.2823 C.ar    1  UNL1        0.0044
     27 C         140.0465  140.3906  169.9090 C.ar    1  UNL1        0.2668
     28 N         140.5055  140.6190  168.4993 N.ar    1  UNL1       -0.1886
     29 C         139.4990  139.9966  167.5775 C.ar    1  UNL1        0.2034
     30 N         138.4180  139.3836  168.4175 N.ar    1  UNL1       -0.0559
     31 O         138.7564  139.6271  169.8584 O.2     1  UNL1       -0.3344
     32 C         140.7536  140.8458  171.1511 C.3     1  UNL1        0.2300
     33 C         139.6217  143.1755  170.9470 C.3     1  UNL1        0.1748
     34 O         140.5849  142.2551  171.6363 O.3     1  UNL1       -0.3416
     35 C         138.3880  142.9182  155.5554 C.3     1  UNL1        0.1183
     36 C         138.9785  144.2756  155.3131 C.ar    1  UNL1        0.0712
     37 N         138.2161  145.5062  155.7061 N.ar    1  UNL1       -0.2471
     38 C         138.8066  146.8637  155.4638 C.ar    1  UNL1        0.0985
     39 C         140.1594  146.9905  154.8285 C.ar    1  UNL1        0.0203
     40 C         140.9218  145.7599  154.4354 C.ar    1  UNL1       -0.0015
     41 C         140.3314  144.4025  154.6777 C.ar    1  UNL1       -0.0069
     42 C         141.0938  143.1720  154.2847 C.3     1  UNL1        0.0323
@<TRIPOS>BOND
     1    33    34    1
     2    34    32    1
     3    32    27    1
     4    27    28   ar
     5    28    29   ar
     6    29    21    1
     7    21    22   ar
     8    22    23   ar
     9    23    24   ar
    10    24     1    1
    11     1     2   am
    12     2     3    2
    13     2     4   am
    14     4    13    1
    15    13    14   ar
    16    14    15   ar
    17    15    16    1
    18    15    17   ar
    19    17    18   ar
    20    18    19   ar
    21     4     5    1
    22     5     6    1
    23     6     7    1
    24     7     8    1
    25     8    35    1
    26    35    36    1
    27    36    37   ar
    28    37    38   ar
    29    38    39   ar
    30    39    40   ar
    31    40    41   ar
    32    41    42    1
    33     8     9    1
    34     9    10    1
    35     5    11    1
    36    11    12    2
    37    24    25   ar
    38    25    26   ar
    39    29    30   ar
    40    30    31   ar
    41    31    27   ar
    42    26    21   ar
    43    11     1   am
    44    19    13   ar
    45    10     5    1
    46    41    36   ar
    47    16    20    1
@<TRIPOS>MOLECULE
*****
 42 47 0 0 0
SMALL
GASTEIGER

@<TRIPOS>ATOM
      1 N         140.9592  143.1002  160.4424 N.am    1  UNL1       -0.1907
      2 C         140.2865  141.7819  160.6869 C.2     1  UNL1        0.3219
      3 O         139.4660  141.0134  159.6940 O.2     1  UNL1       -0.2512
      4 N         140.5784  141.3673  162.0986 N.am    1  UNL1       -0.2222
      5 C         141.4316  142.4293  162.7267 C.3     1  UNL1        0.1391
      6 C         142.2769  143.5670  163.2174 C.3     1  UNL1        0.0449
      7 C         142.8024  143.5593  164.6223 C.3     1  UNL1        0.0746
      8 N         142.4826  142.4138  165.5364 N.3     1  UNL1       -0.2676
      9 C         141.6373  141.2761  165.0457 C.3     1  UNL1        0.0746
     10 C         141.1118  141.2838  163.6408 C.3     1  UNL1        0.0449
     11 C         141.6669  143.5003  161.7031 C.2     1  UNL1        0.2529
     12 O         142.4691  144.7516  161.9048 O.2     1  UNL1       -0.2724
     13 C         140.1011  140.1112  162.7652 C.ar    1  UNL1        0.1453
     14 C         140.8987  138.8469  162.6418 C.ar    1  UNL1        0.0922
     15 C         140.4212  137.5909  163.3085 C.ar    1  UNL1        0.2259
     16 O         141.2189  136.3266  163.1852 O.3     1  UNL1       -0.4919
     17 N         139.1461  137.5991  164.0986 N.ar    1  UNL1       -0.1894
     18 C         138.3485  138.8635  164.2219 C.ar    1  UNL1        0.2027
     19 N         138.8260  140.1195  163.5552 N.ar    1  UNL1       -0.2084
     20 H         142.0154  136.3214  162.6917 H       1  UNL1        0.2938
     21 C         140.8700  145.4434  156.6017 C.ar    1  UNL1        0.0392
     22 C         141.5222  144.0931  156.6416 C.ar    1  UNL1        0.0044
     23 C         141.5520  143.3121  157.9218 C.ar    1  UNL1        0.0155
     24 C         140.9295  143.8813  159.1622 C.ar    1  UNL1        0.0622
     25 C         140.2773  145.2314  159.1223 C.ar    1  UNL1        0.0155
     26 C         140.2476  146.0124  157.8421 C.ar    1  UNL1        0.0044
     27 C         140.4288  147.9815  153.6985 C.ar    1  UNL1        0.2668
     28 N         140.2310  147.5818  155.1307 N.ar    1  UNL1       -0.1886
     29 C         140.8403  146.2244  155.3215 C.ar    1  UNL1        0.2034
     30 N         141.4146  145.7853  154.0072 N.ar    1  UNL1       -0.0559
     31 O         141.1602  146.8712  153.0041 O.2     1  UNL1       -0.3344
     32 C         139.9747  149.2660  153.0709 C.3     1  UNL1        0.2300
     33 C         140.0641  151.2964  154.6894 C.3     1  UNL1        0.1748
     34 O         139.2699  150.2980  153.9005 O.3     1  UNL1       -0.3416
     35 C         143.0081  142.4061  166.9414 C.3     1  UNL1        0.1183
     36 C         142.4025  141.4908  167.9637 C.ar    1  UNL1        0.0712
     37 N         143.0528  140.1744  168.2708 N.ar    1  UNL1       -0.2471
     38 C         142.4470  139.2590  169.2932 C.ar    1  UNL1        0.0985
     39 C         141.1910  139.6600  170.0084 C.ar    1  UNL1        0.0203
     40 C         140.5407  140.9764  169.7013 C.ar    1  UNL1       -0.0015
     41 C         141.1464  141.8917  168.6790 C.ar    1  UNL1       -0.0069
     42 C         140.4961  143.2081  168.3719 C.3     1  UNL1        0.0323
@<TRIPOS>BOND
     1    33    34    1
     2    34    32    1
     3    32    27    1
     4    27    28   ar
     5    28    29   ar
     6    29    21    1
     7    21    22   ar
     8    22    23   ar
     9    23    24   ar
    10    24     1    1
    11     1     2   am
    12     2     3    2
    13     2     4   am
    14     4    13    1
    15    13    14   ar
    16    14    15   ar
    17    15    16    1
    18    15    17   ar
    19    17    18   ar
    20    18    19   ar
    21     4     5    1
    22     5     6    1
    23     6     7    1
    24     7     8    1
    25     8    35    1
    26    35    36    1
    27    36    37   ar
    28    37    38   ar
    29    38    39   ar
    30    39    40   ar
    31    40    41   ar
    32    41    42    1
    33     8     9    1
    34     9    10    1
    35     5    11    1
    36    11    12    2
    37    24    25   ar
    38    25    26   ar
    39    29    30   ar
    40    30    31   ar
    41    31    27   ar
    42    26    21   ar
    43    11     1   am
    44    19    13   ar
    45    10     5    1
    46    41    36   ar
    47    16    20    1
