@<TRIPOS>MOLECULE
*****
 40 45 0 0 0
SMALL
GASTEIGER

@<TRIPOS>ATOM
      1 C         139.9009  143.5946  165.9842 C.ar    1  UNL1       -0.0065
      2 C         139.0071  144.6348  165.3766 C.ar    1  UNL1       -0.0032
      3 C         138.9577  144.8036  163.8870 C.ar    1  UNL1       -0.0026
      4 C         139.8020  143.9323  163.0050 C.ar    1  UNL1        0.0019
      5 C         140.6957  142.8921  163.6126 C.ar    1  UNL1       -0.0200
      6 C         140.7452  142.7233  165.1022 C.ar    1  UNL1       -0.0071
      7 C         141.4083  142.1849  162.4981 C.3     1  UNL1        0.0519
      8 C         140.9550  142.7881  161.2016 C.2     1  UNL1        0.0074
      9 C         141.1153  142.7238  159.7116 C.2     1  UNL1        0.0976
     10 N         140.2216  143.7639  159.1040 N.2     1  UNL1       -0.1526
     11 N         139.5090  144.4711  160.2185 N.2     1  UNL1       -0.1678
     12 C         139.9623  143.8680  161.5149 C.3     1  UNL1        0.1672
     13 C         142.0119  141.7842  158.9610 C.ar    1  UNL1        0.0265
     14 C         143.4563  142.0186  158.6310 C.ar    1  UNL1        0.0376
     15 S         143.9586  140.8246  157.8747 S.2     1  UNL1       -0.0780
     16 C         142.8247  139.8523  157.7373 C.ar    1  UNL1        0.0710
     17 C         141.6216  140.4454  158.4087 C.ar    1  UNL1        0.0168
     18 C         142.8835  138.5207  157.0493 C.1     1  UNL1       -0.0561
     19 C         142.9424  137.1890  156.3613 C.1     1  UNL1       -0.0638
     20 C         143.0012  135.8575  155.6733 C.3     1  UNL1        0.1687
     21 N         144.1752  134.9503  155.8942 N.am    1  UNL1       -0.2774
     22 C         143.9549  133.4931  156.1739 C.2     1  UNL1        0.3052
     23 O         142.5607  132.9432  156.2326 O.2     1  UNL1       -0.2525
     24 N         145.1290  132.5860  156.3948 N.am    1  UNL1       -0.2683
     25 H         145.0904  135.3113  155.8556 H       1  UNL1        0.1519
     26 H         146.0441  132.9470  156.3562 H       1  UNL1        0.1564
     27 C         144.9087  131.1289  156.6744 C.ar    1  UNL1        0.0516
     28 C         144.7261  130.6553  158.0860 C.ar    1  UNL1        0.0147
     29 C         144.5059  129.1982  158.3656 C.ar    1  UNL1        0.0013
     30 C         144.4682  128.2146  157.2337 C.ar    1  UNL1        0.0001
     31 C         144.6508  128.6881  155.8222 C.ar    1  UNL1        0.0013
     32 C         144.8711  130.1453  155.5426 C.ar    1  UNL1        0.0147
     33 C         139.9503  143.4258  167.4739 C.3     1  UNL1        0.0992
     34 C         142.7505  138.6884  169.8648 C.3     1  UNL1        0.0897
     35 N         142.0504  139.8727  169.2671 N.3     1  UNL1       -0.2691
     36 C         142.7630  141.1880  169.1566 C.3     1  UNL1        0.0897
     37 C         142.0629  142.3724  168.5589 C.3     1  UNL1        0.0899
     38 N         140.6504  142.2414  168.0716 N.3     1  UNL1       -0.2665
     39 C         139.9378  140.9261  168.1821 C.3     1  UNL1        0.0899
     40 C         140.6378  139.7418  168.7798 C.3     1  UNL1        0.0897
@<TRIPOS>BOND
     1    34    35    1
     2    35    36    1
     3    36    37    1
     4    37    38    1
     5    38    33    1
     6    33     1    1
     7     1     2   ar
     8     2     3   ar
     9     3     4   ar
    10     4     5   ar
    11     5     6   ar
    12     5     7    1
    13     7     8    1
    14     8     9    2
    15     9    13    1
    16    13    14   ar
    17    14    15   ar
    18    15    16   ar
    19    16    18    1
    20    18    19    3
    21    19    20    1
    22    20    21    1
    23    21    22   am
    24    22    23    2
    25    22    24   am
    26    24    27    1
    27    27    28   ar
    28    28    29   ar
    29    29    30   ar
    30    30    31   ar
    31    31    32   ar
    32    16    17   ar
    33     9    10    1
    34    10    11    2
    35    11    12    1
    36    38    39    1
    37    39    40    1
    38    40    35    1
    39     6     1   ar
    40    12     8    1
    41    12     4    1
    42    17    13   ar
    43    32    27   ar
    44    21    25    1
    45    24    26    1
@<TRIPOS>MOLECULE
*****
 40 45 0 0 0
SMALL
GASTEIGER

@<TRIPOS>ATOM
      1 C         143.4714  130.1727  156.3545 C.ar    1  UNL1       -0.0065
      2 C         142.4562  130.2954  155.2571 C.ar    1  UNL1       -0.0032
      3 C         141.8365  131.6273  154.9542 C.ar    1  UNL1       -0.0026
      4 C         142.2319  132.8366  155.7487 C.ar    1  UNL1        0.0019
      5 C         143.2471  132.7140  156.8461 C.ar    1  UNL1       -0.0200
      6 C         143.8668  131.3820  157.1490 C.ar    1  UNL1       -0.0071
      7 C         143.4376  134.0715  157.4551 C.3     1  UNL1        0.0519
      8 C         142.5402  135.0331  156.7340 C.2     1  UNL1        0.0074
      9 C         142.1033  136.4664  156.6648 C.2     1  UNL1        0.0976
     10 N         141.0882  136.5891  155.5674 N.2     1  UNL1       -0.1526
     11 N         140.8977  135.2316  154.9584 N.2     1  UNL1       -0.1678
     12 C         141.7950  134.2700  155.6794 C.3     1  UNL1        0.1672
     13 C         142.5953  137.5813  157.5395 C.ar    1  UNL1        0.0265
     14 C         142.8771  138.9877  157.1003 C.ar    1  UNL1        0.0376
     15 S         143.3477  139.7611  158.2963 S.2     1  UNL1       -0.0780
     16 C         143.3569  138.8328  159.4745 C.ar    1  UNL1        0.0710
     17 C         142.8918  137.4856  159.0067 C.ar    1  UNL1        0.0168
     18 C         143.7602  139.1891  160.8746 C.1     1  UNL1       -0.0561
     19 C         144.1636  139.5454  162.2747 C.1     1  UNL1       -0.0638
     20 C         144.5669  139.9017  163.6749 C.3     1  UNL1        0.1687
     21 N         143.6548  139.5829  164.8222 N.am    1  UNL1       -0.2774
     22 C         143.2940  140.6504  165.8124 C.2     1  UNL1        0.3052
     23 O         143.8453  142.0365  165.6553 O.2     1  UNL1       -0.2525
     24 N         142.3819  140.3316  166.9598 N.am    1  UNL1       -0.2683
     25 H         143.2930  138.6732  164.9254 H       1  UNL1        0.1519
     26 H         142.0201  139.4219  167.0630 H       1  UNL1        0.1564
     27 C         142.0211  141.3990  167.9500 C.ar    1  UNL1        0.0516
     28 C         140.6982  142.0988  167.8498 C.ar    1  UNL1        0.0147
     29 C         140.3373  143.1661  168.8399 C.ar    1  UNL1        0.0013
     30 C         141.2995  143.5337  169.9305 C.ar    1  UNL1        0.0001
     31 C         142.6225  142.8339  170.0307 C.ar    1  UNL1        0.0013
     32 C         142.9833  141.7665  169.0405 C.ar    1  UNL1        0.0147
     33 C         144.0912  128.8407  156.6575 C.3     1  UNL1        0.0992
     34 C         145.5048  127.4055  162.3092 C.3     1  UNL1        0.0897
     35 N         145.1514  127.7643  160.8963 N.3     1  UNL1       -0.2691
     36 C         143.7131  127.9149  160.4981 C.3     1  UNL1        0.0897
     37 C         143.3597  128.2737  159.0851 C.3     1  UNL1        0.0899
     38 N         144.4445  128.4819  158.0704 N.3     1  UNL1       -0.2665
     39 C         145.8829  128.3314  158.4687 C.3     1  UNL1        0.0899
     40 C         146.2363  127.9726  159.8816 C.3     1  UNL1        0.0897
@<TRIPOS>BOND
     1    34    35    1
     2    35    36    1
     3    36    37    1
     4    37    38    1
     5    38    33    1
     6    33     1    1
     7     1     2   ar
     8     2     3   ar
     9     3     4   ar
    10     4     5   ar
    11     5     6   ar
    12     5     7    1
    13     7     8    1
    14     8     9    2
    15     9    13    1
    16    13    14   ar
    17    14    15   ar
    18    15    16   ar
    19    16    18    1
    20    18    19    3
    21    19    20    1
    22    20    21    1
    23    21    22   am
    24    22    23    2
    25    22    24   am
    26    24    27    1
    27    27    28   ar
    28    28    29   ar
    29    29    30   ar
    30    30    31   ar
    31    31    32   ar
    32    16    17   ar
    33     9    10    1
    34    10    11    2
    35    11    12    1
    36    38    39    1
    37    39    40    1
    38    40    35    1
    39     6     1   ar
    40    12     8    1
    41    12     4    1
    42    17    13   ar
    43    32    27   ar
    44    21    25    1
    45    24    26    1
@<TRIPOS>MOLECULE
*****
 40 45 0 0 0
SMALL
GASTEIGER

@<TRIPOS>ATOM
      1 C         140.9855  143.3811  164.6376 C.ar    1  UNL1       -0.0065
      2 C         140.7025  144.8064  164.2658 C.ar    1  UNL1       -0.0032
      3 C         140.9526  145.2798  162.8647 C.ar    1  UNL1       -0.0026
      4 C         141.4856  144.3279  161.8353 C.ar    1  UNL1        0.0019
      5 C         141.7686  142.9026  162.2070 C.ar    1  UNL1       -0.0200
      6 C         141.5186  142.4291  163.6081 C.ar    1  UNL1       -0.0071
      7 C         142.2861  142.1994  160.9872 C.3     1  UNL1        0.0519
      8 C         142.3229  143.1902  159.8616 C.2     1  UNL1        0.0074
      9 C         142.6654  143.3680  158.4121 C.2     1  UNL1        0.0976
     10 N         142.3824  144.7933  158.0404 N.2     1  UNL1       -0.1526
     11 N         141.8650  145.4965  159.2601 N.2     1  UNL1       -0.1678
     12 C         141.8282  144.5057  160.3857 C.3     1  UNL1        0.1672
     13 C         143.1975  142.3067  157.4953 C.ar    1  UNL1        0.0265
     14 C         144.2131  142.5075  156.4097 C.ar    1  UNL1        0.0376
     15 S         144.4507  141.1831  155.7467 S.2     1  UNL1       -0.0780
     16 C         143.5820  140.1639  156.4224 C.ar    1  UNL1        0.0710
     17 C         142.8075  140.8583  157.5031 C.ar    1  UNL1        0.0168
     18 C         143.5019  138.7062  156.0779 C.1     1  UNL1       -0.0561
     19 C         143.4218  137.2485  155.7334 C.1     1  UNL1       -0.0638
     20 C         143.3417  135.7908  155.3889 C.3     1  UNL1        0.1687
     21 N         144.3678  134.8362  155.9237 N.am    1  UNL1       -0.2774
     22 C         144.0555  133.3717  156.0125 C.2     1  UNL1        0.3052
     23 O         142.7172  132.8619  155.5666 O.2     1  UNL1       -0.2525
     24 N         145.0816  132.4172  156.5473 N.am    1  UNL1       -0.2683
     25 H         145.2462  135.1709  156.2164 H       1  UNL1        0.1519
     26 H         145.9600  132.7519  156.8400 H       1  UNL1        0.1564
     27 C         144.7694  130.9528  156.6362 C.ar    1  UNL1        0.0516
     28 C         144.4287  130.3376  157.9611 C.ar    1  UNL1        0.0147
     29 C         144.1164  128.8732  158.0500 C.ar    1  UNL1        0.0013
     30 C         144.1449  128.0239  156.8139 C.ar    1  UNL1        0.0001
     31 C         144.4856  128.6390  155.4889 C.ar    1  UNL1        0.0013
     32 C         144.7978  130.1035  155.4001 C.ar    1  UNL1        0.0147
     33 C         140.7355  142.9075  166.0388 C.3     1  UNL1        0.0992
     34 C         137.4828  137.9577  166.9972 C.3     1  UNL1        0.0897
     35 N         138.2959  139.1951  166.7576 N.3     1  UNL1       -0.2691
     36 C         139.2204  139.7032  167.8240 C.3     1  UNL1        0.0897
     37 C         140.0336  140.9407  167.5844 C.3     1  UNL1        0.0899
     38 N         139.9223  141.6701  166.2784 N.3     1  UNL1       -0.2665
     39 C         138.9978  141.1620  165.2120 C.3     1  UNL1        0.0899
     40 C         138.1847  139.9245  165.4516 C.3     1  UNL1        0.0897
@<TRIPOS>BOND
     1    34    35    1
     2    35    36    1
     3    36    37    1
     4    37    38    1
     5    38    33    1
     6    33     1    1
     7     1     2   ar
     8     2     3   ar
     9     3     4   ar
    10     4     5   ar
    11     5     6   ar
    12     5     7    1
    13     7     8    1
    14     8     9    2
    15     9    13    1
    16    13    14   ar
    17    14    15   ar
    18    15    16   ar
    19    16    18    1
    20    18    19    3
    21    19    20    1
    22    20    21    1
    23    21    22   am
    24    22    23    2
    25    22    24   am
    26    24    27    1
    27    27    28   ar
    28    28    29   ar
    29    29    30   ar
    30    30    31   ar
    31    31    32   ar
    32    16    17   ar
    33     9    10    1
    34    10    11    2
    35    11    12    1
    36    38    39    1
    37    39    40    1
    38    40    35    1
    39     6     1   ar
    40    12     8    1
    41    12     4    1
    42    17    13   ar
    43    32    27   ar
    44    21    25    1
    45    24    26    1
@<TRIPOS>MOLECULE
*****
 40 45 0 0 0
SMALL
GASTEIGER

@<TRIPOS>ATOM
      1 C         144.0635  131.4499  155.2581 C.ar    1  UNL1       -0.0065
      2 C         143.1410  131.5035  154.0765 C.ar    1  UNL1       -0.0032
      3 C         142.4922  132.7994  153.6898 C.ar    1  UNL1       -0.0026
      4 C         142.7657  134.0416  154.4848 C.ar    1  UNL1        0.0019
      5 C         143.6881  133.9881  155.6663 C.ar    1  UNL1       -0.0200
      6 C         144.3370  132.6922  156.0530 C.ar    1  UNL1       -0.0071
      7 C         143.7670  135.3652  156.2556 C.3     1  UNL1        0.0519
      8 C         142.8934  136.2699  155.4382 C.2     1  UNL1        0.0074
      9 C         142.4022  137.6802  155.2972 C.2     1  UNL1        0.0976
     10 N         141.4798  137.7338  154.1156 N.2     1  UNL1       -0.1526
     11 N         141.4008  136.3567  153.5264 N.2     1  UNL1       -0.1678
     12 C         142.2745  135.4520  154.3437 C.3     1  UNL1        0.1672
     13 C         142.7691  138.8343  156.1824 C.ar    1  UNL1        0.0265
     14 C         142.9564  140.2567  155.7445 C.ar    1  UNL1        0.0376
     15 S         143.3161  141.0700  156.9524 S.2     1  UNL1       -0.0780
     16 C         143.3512  140.1503  158.1368 C.ar    1  UNL1        0.0710
     17 C         143.0131  138.7686  157.6610 C.ar    1  UNL1        0.0168
     18 C         143.6686  140.5433  159.5492 C.1     1  UNL1       -0.0561
     19 C         143.9860  140.9364  160.9616 C.1     1  UNL1       -0.0638
     20 C         144.3034  141.3294  162.3739 C.3     1  UNL1        0.1687
     21 N         144.0237  140.3769  163.4984 N.am    1  UNL1       -0.2774
     22 C         142.6127  140.1462  163.9524 C.2     1  UNL1        0.3052
     23 O         141.4816  140.8680  163.2819 O.2     1  UNL1       -0.2525
     24 N         142.3330  139.1937  165.0769 N.am    1  UNL1       -0.2683
     25 H         144.7661  139.9032  163.9385 H       1  UNL1        0.1519
     26 H         143.0754  138.7200  165.5169 H       1  UNL1        0.1564
     27 C         140.9221  138.9630  165.5309 C.ar    1  UNL1        0.0516
     28 C         140.0779  137.9226  164.8565 C.ar    1  UNL1        0.0147
     29 C         138.6670  137.6918  165.3105 C.ar    1  UNL1        0.0013
     30 C         138.1003  138.5015  166.4389 C.ar    1  UNL1        0.0001
     31 C         138.9446  139.5419  167.1134 C.ar    1  UNL1        0.0013
     32 C         140.3555  139.7726  166.6593 C.ar    1  UNL1        0.0147
     33 C         144.7124  130.1539  155.6448 C.3     1  UNL1        0.0992
     34 C         142.5511  126.9736  160.2506 C.3     1  UNL1        0.0897
     35 N         143.0915  127.7687  159.0992 N.3     1  UNL1       -0.2691
     36 C         142.5857  127.5153  157.7100 C.3     1  UNL1        0.0897
     37 C         143.1260  128.3104  156.5585 C.3     1  UNL1        0.0899
     38 N         144.1721  129.3588  156.7963 N.3     1  UNL1       -0.2665
     39 C         144.6779  129.6122  158.1856 C.3     1  UNL1        0.0899
     40 C         144.1375  128.8171  159.3370 C.3     1  UNL1        0.0897
@<TRIPOS>BOND
     1    34    35    1
     2    35    36    1
     3    36    37    1
     4    37    38    1
     5    38    33    1
     6    33     1    1
     7     1     2   ar
     8     2     3   ar
     9     3     4   ar
    10     4     5   ar
    11     5     6   ar
    12     5     7    1
    13     7     8    1
    14     8     9    2
    15     9    13    1
    16    13    14   ar
    17    14    15   ar
    18    15    16   ar
    19    16    18    1
    20    18    19    3
    21    19    20    1
    22    20    21    1
    23    21    22   am
    24    22    23    2
    25    22    24   am
    26    24    27    1
    27    27    28   ar
    28    28    29   ar
    29    29    30   ar
    30    30    31   ar
    31    31    32   ar
    32    16    17   ar
    33     9    10    1
    34    10    11    2
    35    11    12    1
    36    38    39    1
    37    39    40    1
    38    40    35    1
    39     6     1   ar
    40    12     8    1
    41    12     4    1
    42    17    13   ar
    43    32    27   ar
    44    21    25    1
    45    24    26    1
@<TRIPOS>MOLECULE
*****
 40 45 0 0 0
SMALL
GASTEIGER

@<TRIPOS>ATOM
      1 C         139.1372  141.1057  165.1729 C.ar    1  UNL1       -0.0065
      2 C         139.2447  142.5692  165.4833 C.ar    1  UNL1       -0.0032
      3 C         139.4066  143.5619  164.3706 C.ar    1  UNL1       -0.0026
      4 C         139.4610  143.0911  162.9474 C.ar    1  UNL1        0.0019
      5 C         139.3535  141.6276  162.6370 C.ar    1  UNL1       -0.0200
      6 C         139.1916  140.6348  163.7497 C.ar    1  UNL1       -0.0071
      7 C         139.4391  141.4619  161.1487 C.3     1  UNL1        0.0519
      8 C         139.5995  142.8231  160.5392 C.2     1  UNL1        0.0074
      9 C         139.7516  143.5620  159.2427 C.2     1  UNL1        0.0976
     10 N         139.8591  145.0255  159.5531 N.2     1  UNL1       -0.1526
     11 N         139.7735  145.1912  161.0414 N.2     1  UNL1       -0.1678
     12 C         139.6131  143.8301  161.6509 C.3     1  UNL1        0.1672
     13 C         139.7895  142.9455  157.8757 C.ar    1  UNL1        0.0265
     14 C         139.6473  143.6775  156.5741 C.ar    1  UNL1        0.0376
     15 S         139.7461  142.6731  155.4644 S.2     1  UNL1       -0.0780
     16 C         139.9493  141.3205  156.0801 C.ar    1  UNL1        0.0710
     17 C         139.9761  141.4888  157.5703 C.ar    1  UNL1        0.0168
     18 C         140.0994  140.0267  155.3361 C.1     1  UNL1       -0.0561
     19 C         140.2495  138.7328  154.5922 C.1     1  UNL1       -0.0638
     20 C         140.3995  137.4390  153.8482 C.3     1  UNL1        0.1687
     21 N         140.2936  136.1351  154.5822 N.am    1  UNL1       -0.2774
     22 C         141.5365  135.4014  154.9910 C.2     1  UNL1        0.3052
     23 O         142.8852  135.9716  154.6658 O.2     1  UNL1       -0.2525
     24 N         141.4306  134.0976  155.7250 N.am    1  UNL1       -0.2683
     25 H         139.4084  135.7609  154.7957 H       1  UNL1        0.1519
     26 H         140.5454  133.7233  155.9384 H       1  UNL1        0.1564
     27 C         142.6734  133.3639  156.1337 C.ar    1  UNL1        0.0516
     28 C         143.3590  133.7097  157.4223 C.ar    1  UNL1        0.0147
     29 C         144.6018  132.9761  157.8311 C.ar    1  UNL1        0.0013
     30 C         145.1591  131.8965  156.9512 C.ar    1  UNL1        0.0001
     31 C         144.4736  131.5507  155.6627 C.ar    1  UNL1        0.0013
     32 C         143.2307  132.2844  155.2539 C.ar    1  UNL1        0.0147
     33 C         138.9752  140.1128  166.2856 C.3     1  UNL1        0.0992
     34 C         143.0272  139.8713  170.7041 C.3     1  UNL1        0.0897
     35 N         142.0142  139.9317  169.5995 N.3     1  UNL1       -0.2691
     36 C         142.4501  139.7756  168.1728 C.3     1  UNL1        0.0897
     37 C         141.4371  139.8359  167.0681 C.3     1  UNL1        0.0899
     38 N         139.9882  140.0525  167.3902 N.3     1  UNL1       -0.2665
     39 C         139.5523  140.2086  168.8170 C.3     1  UNL1        0.0899
     40 C         140.5653  140.1482  169.9216 C.3     1  UNL1        0.0897
@<TRIPOS>BOND
     1    34    35    1
     2    35    36    1
     3    36    37    1
     4    37    38    1
     5    38    33    1
     6    33     1    1
     7     1     2   ar
     8     2     3   ar
     9     3     4   ar
    10     4     5   ar
    11     5     6   ar
    12     5     7    1
    13     7     8    1
    14     8     9    2
    15     9    13    1
    16    13    14   ar
    17    14    15   ar
    18    15    16   ar
    19    16    18    1
    20    18    19    3
    21    19    20    1
    22    20    21    1
    23    21    22   am
    24    22    23    2
    25    22    24   am
    26    24    27    1
    27    27    28   ar
    28    28    29   ar
    29    29    30   ar
    30    30    31   ar
    31    31    32   ar
    32    16    17   ar
    33     9    10    1
    34    10    11    2
    35    11    12    1
    36    38    39    1
    37    39    40    1
    38    40    35    1
    39     6     1   ar
    40    12     8    1
    41    12     4    1
    42    17    13   ar
    43    32    27   ar
    44    21    25    1
    45    24    26    1
@<TRIPOS>MOLECULE
*****
 40 45 0 0 0
SMALL
GASTEIGER

@<TRIPOS>ATOM
      1 C         136.0230  141.9111  154.5022 C.ar    1  UNL1       -0.0065
      2 C         136.3828  143.0536  153.5994 C.ar    1  UNL1       -0.0032
      3 C         137.4054  144.0606  154.0354 C.ar    1  UNL1       -0.0026
      4 C         138.0681  143.9252  155.3742 C.ar    1  UNL1        0.0019
      5 C         137.7083  142.7827  156.2770 C.ar    1  UNL1       -0.0200
      6 C         136.6857  141.7756  155.8410 C.ar    1  UNL1       -0.0071
      7 C         138.5225  142.9082  157.5305 C.3     1  UNL1        0.0519
      8 C         139.3856  144.1284  157.4024 C.2     1  UNL1        0.0074
      9 C         140.4222  144.9600  158.0980 C.2     1  UNL1        0.0976
     10 N         140.7820  146.1025  157.1952 N.2     1  UNL1       -0.1526
     11 N         139.9678  145.9770  155.9417 N.2     1  UNL1       -0.1678
     12 C         139.1048  144.7569  156.0698 C.3     1  UNL1        0.1672
     13 C         140.9978  144.6956  159.4577 C.ar    1  UNL1        0.0265
     14 C         140.6803  145.4540  160.7123 C.ar    1  UNL1        0.0376
     15 S         141.4783  144.8534  161.8314 S.2     1  UNL1       -0.0780
     16 C         142.2890  143.7238  161.2685 C.ar    1  UNL1        0.0710
     17 C         141.9921  143.6263  159.8014 C.ar    1  UNL1        0.0168
     18 C         143.2313  142.8460  162.0376 C.1     1  UNL1       -0.0561
     19 C         144.1735  141.9680  162.8067 C.1     1  UNL1       -0.0638
     20 C         145.1157  141.0902  163.5758 C.3     1  UNL1        0.1687
     21 N         144.5776  139.9913  164.4435 N.am    1  UNL1       -0.2774
     22 C         143.5855  140.3062  165.5236 C.2     1  UNL1        0.3052
     23 O         143.1316  141.7200  165.7360 O.2     1  UNL1       -0.2525
     24 N         143.0475  139.2073  166.3913 N.am    1  UNL1       -0.2683
     25 H         144.8756  139.0634  164.3041 H       1  UNL1        0.1519
     26 H         143.3454  138.2794  166.2519 H       1  UNL1        0.1564
     27 C         142.0554  139.5222  167.4714 C.ar    1  UNL1        0.0516
     28 C         142.4840  139.5147  168.9088 C.ar    1  UNL1        0.0147
     29 C         141.4919  139.8296  169.9889 C.ar    1  UNL1        0.0013
     30 C         140.0712  140.1520  169.6316 C.ar    1  UNL1        0.0001
     31 C         139.6426  140.1595  168.1941 C.ar    1  UNL1        0.0013
     32 C         140.6347  139.8446  167.1140 C.ar    1  UNL1        0.0147
     33 C         135.0004  140.9039  154.0662 C.3     1  UNL1        0.0992
     34 C         130.5045  139.4073  157.7468 C.3     1  UNL1        0.0897
     35 N         131.6285  139.7815  156.8267 N.3     1  UNL1       -0.2691
     36 C         132.8477  138.9121  156.7399 C.3     1  UNL1        0.0897
     37 C         133.9717  139.2862  155.8197 C.3     1  UNL1        0.0899
     38 N         133.8764  140.5298  154.9864 N.3     1  UNL1       -0.2665
     39 C         132.6571  141.3992  155.0732 C.3     1  UNL1        0.0899
     40 C         131.5332  141.0251  155.9934 C.3     1  UNL1        0.0897
@<TRIPOS>BOND
     1    34    35    1
     2    35    36    1
     3    36    37    1
     4    37    38    1
     5    38    33    1
     6    33     1    1
     7     1     2   ar
     8     2     3   ar
     9     3     4   ar
    10     4     5   ar
    11     5     6   ar
    12     5     7    1
    13     7     8    1
    14     8     9    2
    15     9    13    1
    16    13    14   ar
    17    14    15   ar
    18    15    16   ar
    19    16    18    1
    20    18    19    3
    21    19    20    1
    22    20    21    1
    23    21    22   am
    24    22    23    2
    25    22    24   am
    26    24    27    1
    27    27    28   ar
    28    28    29   ar
    29    29    30   ar
    30    30    31   ar
    31    31    32   ar
    32    16    17   ar
    33     9    10    1
    34    10    11    2
    35    11    12    1
    36    38    39    1
    37    39    40    1
    38    40    35    1
    39     6     1   ar
    40    12     8    1
    41    12     4    1
    42    17    13   ar
    43    32    27   ar
    44    21    25    1
    45    24    26    1
@<TRIPOS>MOLECULE
*****
 40 45 0 0 0
SMALL
GASTEIGER

@<TRIPOS>ATOM
      1 C         144.5921  127.6739  159.3534 C.ar    1  UNL1       -0.0065
      2 C         145.1550  126.9447  158.1697 C.ar    1  UNL1       -0.0032
      3 C         145.0508  127.5461  156.7995 C.ar    1  UNL1       -0.0026
      4 C         144.3838  128.8766  156.6130 C.ar    1  UNL1        0.0019
      5 C         143.8209  129.6058  157.7968 C.ar    1  UNL1       -0.0200
      6 C         143.9250  129.0044  159.1670 C.ar    1  UNL1       -0.0071
      7 C         143.2235  130.8918  157.3078 C.3     1  UNL1        0.0519
      8 C         143.4172  130.9575  155.8218 C.2     1  UNL1        0.0074
      9 C         143.1677  131.7929  154.6013 C.2     1  UNL1        0.0976
     10 N         143.7306  131.0638  153.4175 N.2     1  UNL1       -0.1526
     11 N         144.3280  129.7777  153.9065 N.2     1  UNL1       -0.1678
     12 C         144.1343  129.7120  155.3924 C.3     1  UNL1        0.1672
     13 C         142.4766  133.1239  154.5700 C.ar    1  UNL1        0.0265
     14 C         141.8192  133.7482  153.3749 C.ar    1  UNL1        0.0376
     15 S         141.2579  135.0743  153.7946 S.2     1  UNL1       -0.0780
     16 C         141.5683  135.2697  155.2491 C.ar    1  UNL1        0.0710
     17 C         142.3214  134.0642  155.7283 C.ar    1  UNL1        0.0168
     18 C         141.1916  136.4612  156.0788 C.1     1  UNL1       -0.0561
     19 C         140.8150  137.6528  156.9085 C.1     1  UNL1       -0.0638
     20 C         140.4383  138.8443  157.7381 C.3     1  UNL1        0.1687
     21 N         139.2291  138.7894  158.6240 N.am    1  UNL1       -0.2774
     22 C         139.3887  138.8386  160.1147 C.2     1  UNL1        0.3052
     23 O         140.7574  138.9427  160.7195 O.2     1  UNL1       -0.2525
     24 N         138.1796  138.7837  161.0007 N.am    1  UNL1       -0.2683
     25 H         138.3308  138.7211  158.2271 H       1  UNL1        0.1519
     26 H         137.2812  138.7154  160.6038 H       1  UNL1        0.1564
     27 C         138.3391  138.8329  162.4913 C.ar    1  UNL1        0.0516
     28 C         137.9874  140.0827  163.2424 C.ar    1  UNL1        0.0147
     29 C         138.1469  140.1319  164.7331 C.ar    1  UNL1        0.0013
     30 C         138.6582  138.9312  165.4727 C.ar    1  UNL1        0.0001
     31 C         139.0099  137.6814  164.7216 C.ar    1  UNL1        0.0013
     32 C         138.8503  137.6322  163.2309 C.ar    1  UNL1        0.0147
     33 C         144.6962  127.0726  160.7237 C.3     1  UNL1        0.0992
     34 C         149.6660  127.8837  163.9860 C.3     1  UNL1        0.0897
     35 N         148.4236  127.6809  163.1705 N.3     1  UNL1       -0.2691
     36 C         147.1917  127.1115  163.8094 C.3     1  UNL1        0.0897
     37 C         145.9492  126.9087  162.9938 C.3     1  UNL1        0.0899
     38 N         145.9386  127.2753  161.5393 N.3     1  UNL1       -0.2665
     39 C         147.1706  127.8448  160.9004 C.3     1  UNL1        0.0899
     40 C         148.4130  128.0476  161.7160 C.3     1  UNL1        0.0897
@<TRIPOS>BOND
     1    34    35    1
     2    35    36    1
     3    36    37    1
     4    37    38    1
     5    38    33    1
     6    33     1    1
     7     1     2   ar
     8     2     3   ar
     9     3     4   ar
    10     4     5   ar
    11     5     6   ar
    12     5     7    1
    13     7     8    1
    14     8     9    2
    15     9    13    1
    16    13    14   ar
    17    14    15   ar
    18    15    16   ar
    19    16    18    1
    20    18    19    3
    21    19    20    1
    22    20    21    1
    23    21    22   am
    24    22    23    2
    25    22    24   am
    26    24    27    1
    27    27    28   ar
    28    28    29   ar
    29    29    30   ar
    30    30    31   ar
    31    31    32   ar
    32    16    17   ar
    33     9    10    1
    34    10    11    2
    35    11    12    1
    36    38    39    1
    37    39    40    1
    38    40    35    1
    39     6     1   ar
    40    12     8    1
    41    12     4    1
    42    17    13   ar
    43    32    27   ar
    44    21    25    1
    45    24    26    1
@<TRIPOS>MOLECULE
*****
 40 45 0 0 0
SMALL
GASTEIGER

@<TRIPOS>ATOM
      1 C         139.1511  139.9721  167.4970 C.ar    1  UNL1       -0.0065
      2 C         138.3441  138.7411  167.2084 C.ar    1  UNL1       -0.0032
      3 C         138.0582  138.3473  165.7896 C.ar    1  UNL1       -0.0026
      4 C         138.5794  139.1845  164.6593 C.ar    1  UNL1        0.0019
      5 C         139.3863  140.4156  164.9479 C.ar    1  UNL1       -0.0200
      6 C         139.6722  140.8094  166.3667 C.ar    1  UNL1       -0.0071
      7 C         139.7649  141.0394  163.6374 C.3     1  UNL1        0.0519
      8 C         139.1918  140.1939  162.5388 C.2     1  UNL1        0.0074
      9 C         139.0717  140.0570  161.0499 C.2     1  UNL1        0.0976
     10 N         138.2647  138.8260  160.7613 N.2     1  UNL1       -0.1526
     11 N         137.8862  138.2021  162.0718 N.2     1  UNL1       -0.1678
     12 C         138.4591  139.0475  163.1704 C.3     1  UNL1        0.1672
     13 C         139.6559  140.9877  160.0289 C.ar    1  UNL1        0.0265
     14 C         141.0863  141.0163  159.5781 C.ar    1  UNL1        0.0376
     15 S         141.2267  142.0994  158.5500 S.2     1  UNL1       -0.0780
     16 C         139.8831  142.7403  158.3654 C.ar    1  UNL1        0.0710
     17 C         138.9123  142.0532  159.2794 C.ar    1  UNL1        0.0168
     18 C         139.5660  143.8699  157.4309 C.1     1  UNL1       -0.0561
     19 C         139.2489  144.9996  156.4963 C.1     1  UNL1       -0.0638
     20 C         138.9318  146.1292  155.5618 C.3     1  UNL1        0.1687
     21 N         138.8007  147.5265  156.0914 N.am    1  UNL1       -0.2774
     22 C         139.2212  148.6917  155.2455 C.2     1  UNL1        0.3052
     23 O         139.7728  148.4597  153.8701 O.2     1  UNL1       -0.2525
     24 N         139.0901  150.0890  155.7751 N.am    1  UNL1       -0.2683
     25 H         138.4386  147.6788  156.9942 H       1  UNL1        0.1519
     26 H         138.7281  150.2413  156.6779 H       1  UNL1        0.1564
     27 C         139.5106  151.2542  154.9293 C.ar    1  UNL1        0.0516
     28 C         138.4843  152.2273  154.4296 C.ar    1  UNL1        0.0147
     29 C         138.9048  153.3925  153.5837 C.ar    1  UNL1        0.0013
     30 C         140.3517  153.5846  153.2377 C.ar    1  UNL1        0.0001
     31 C         141.3780  152.6115  153.7374 C.ar    1  UNL1        0.0013
     32 C         140.9574  151.4463  154.5833 C.ar    1  UNL1        0.0147
     33 C         139.4369  140.3660  168.9159 C.3     1  UNL1        0.0992
     34 C         144.6639  142.9587  170.3147 C.3     1  UNL1        0.0897
     35 N         143.3571  142.3106  169.9650 N.3     1  UNL1       -0.2691
     36 C         143.2942  140.8312  169.7253 C.3     1  UNL1        0.0897
     37 C         141.9874  140.1830  169.3756 C.3     1  UNL1        0.0899
     38 N         140.7437  141.0142  169.2656 N.3     1  UNL1       -0.2665
     39 C         140.8066  142.4936  169.5052 C.3     1  UNL1        0.0899
     40 C         142.1134  143.1418  169.8549 C.3     1  UNL1        0.0897
@<TRIPOS>BOND
     1    34    35    1
     2    35    36    1
     3    36    37    1
     4    37    38    1
     5    38    33    1
     6    33     1    1
     7     1     2   ar
     8     2     3   ar
     9     3     4   ar
    10     4     5   ar
    11     5     6   ar
    12     5     7    1
    13     7     8    1
    14     8     9    2
    15     9    13    1
    16    13    14   ar
    17    14    15   ar
    18    15    16   ar
    19    16    18    1
    20    18    19    3
    21    19    20    1
    22    20    21    1
    23    21    22   am
    24    22    23    2
    25    22    24   am
    26    24    27    1
    27    27    28   ar
    28    28    29   ar
    29    29    30   ar
    30    30    31   ar
    31    31    32   ar
    32    16    17   ar
    33     9    10    1
    34    10    11    2
    35    11    12    1
    36    38    39    1
    37    39    40    1
    38    40    35    1
    39     6     1   ar
    40    12     8    1
    41    12     4    1
    42    17    13   ar
    43    32    27   ar
    44    21    25    1
    45    24    26    1
@<TRIPOS>MOLECULE
*****
 40 45 0 0 0
SMALL
GASTEIGER

@<TRIPOS>ATOM
      1 C         135.1381  140.6908  155.2213 C.ar    1  UNL1       -0.0065
      2 C         135.4641  139.5970  154.2480 C.ar    1  UNL1       -0.0032
      3 C         136.8744  139.1025  154.1203 C.ar    1  UNL1       -0.0026
      4 C         137.9587  139.7017  154.9660 C.ar    1  UNL1        0.0019
      5 C         137.6327  140.7955  155.9393 C.ar    1  UNL1       -0.0200
      6 C         136.2224  141.2900  156.0670 C.ar    1  UNL1       -0.0071
      7 C         138.9018  141.1909  156.6344 C.3     1  UNL1        0.0519
      8 C         140.0122  140.3416  156.0905 C.2     1  UNL1        0.0074
      9 C         141.4827  140.0611  156.1840 C.2     1  UNL1        0.0976
     10 N         141.8088  138.9674  155.2107 N.2     1  UNL1       -0.1526
     11 N         140.5397  138.5719  154.5157 N.2     1  UNL1       -0.1678
     12 C         139.4294  139.4212  155.0594 C.3     1  UNL1        0.1672
     13 C         142.4564  140.7529  157.0915 C.ar    1  UNL1        0.0265
     14 C         143.4509  141.7993  156.6842 C.ar    1  UNL1        0.0376
     15 S         144.2155  142.2128  157.9066 S.2     1  UNL1       -0.0780
     16 C         143.6935  141.4220  159.0694 C.ar    1  UNL1        0.0710
     17 C         142.6063  140.5197  158.5657 C.ar    1  UNL1        0.0168
     18 C         144.1743  141.5168  160.4871 C.1     1  UNL1       -0.0561
     19 C         144.6551  141.6117  161.9048 C.1     1  UNL1       -0.0638
     20 C         145.1359  141.7065  163.3225 C.3     1  UNL1        0.1687
     21 N         144.3839  141.0101  164.4177 N.am    1  UNL1       -0.2774
     22 C         143.7557  141.8086  165.5213 C.2     1  UNL1        0.3052
     23 O         143.8795  143.3034  165.5296 O.2     1  UNL1       -0.2525
     24 N         143.0037  141.1121  166.6165 N.am    1  UNL1       -0.2683
     25 H         144.3026  140.0289  164.4122 H       1  UNL1        0.1519
     26 H         142.9224  140.1310  166.6110 H       1  UNL1        0.1564
     27 C         142.3755  141.9105  167.7200 C.ar    1  UNL1        0.0516
     28 C         143.1588  142.2205  168.9611 C.ar    1  UNL1        0.0147
     29 C         142.5306  143.0189  170.0647 C.ar    1  UNL1        0.0013
     30 C         141.1190  143.5074  169.9271 C.ar    1  UNL1        0.0001
     31 C         140.3356  143.1974  168.6861 C.ar    1  UNL1        0.0013
     32 C         140.9639  142.3990  167.5825 C.ar    1  UNL1        0.0147
     33 C         133.7276  141.1853  155.3490 C.3     1  UNL1        0.0992
     34 C         129.7657  138.1307  158.6614 C.3     1  UNL1        0.0897
     35 N         130.7562  138.8943  157.8333 N.3     1  UNL1       -0.2691
     36 C         132.2228  138.6091  157.9660 C.3     1  UNL1        0.0897
     37 C         133.2133  139.3728  157.1379 C.3     1  UNL1        0.0899
     38 N         132.7372  140.4217  156.1771 N.3     1  UNL1       -0.2665
     39 C         131.2705  140.7069  156.0444 C.3     1  UNL1        0.0899
     40 C         130.2800  139.9432  156.8725 C.3     1  UNL1        0.0897
@<TRIPOS>BOND
     1    34    35    1
     2    35    36    1
     3    36    37    1
     4    37    38    1
     5    38    33    1
     6    33     1    1
     7     1     2   ar
     8     2     3   ar
     9     3     4   ar
    10     4     5   ar
    11     5     6   ar
    12     5     7    1
    13     7     8    1
    14     8     9    2
    15     9    13    1
    16    13    14   ar
    17    14    15   ar
    18    15    16   ar
    19    16    18    1
    20    18    19    3
    21    19    20    1
    22    20    21    1
    23    21    22   am
    24    22    23    2
    25    22    24   am
    26    24    27    1
    27    27    28   ar
    28    28    29   ar
    29    29    30   ar
    30    30    31   ar
    31    31    32   ar
    32    16    17   ar
    33     9    10    1
    34    10    11    2
    35    11    12    1
    36    38    39    1
    37    39    40    1
    38    40    35    1
    39     6     1   ar
    40    12     8    1
    41    12     4    1
    42    17    13   ar
    43    32    27   ar
    44    21    25    1
    45    24    26    1
