@<TRIPOS>MOLECULE
*****
 33 37 0 0 0
SMALL
GASTEIGER

@<TRIPOS>ATOM
      1 C         139.7396  144.6273  162.4703 C.ar    1  UNL1        0.2224
      2 N         140.5857  145.1182  163.6074 N.ar    1  UNL1       -0.1127
      3 N         140.5130  144.1044  164.7106 N.ar    1  UNL1       -0.1273
      4 C         139.6219  142.9870  164.2552 C.ar    1  UNL1        0.1704
      5 N         139.1439  143.3103  162.8706 N.ar    1  UNL1       -0.2796
      6 C         138.2348  142.5111  161.9848 C.3     1  UNL1        0.1574
      7 C         137.5790  141.1913  162.2646 C.3     1  UNL1        0.2299
      8 O         137.6706  140.3448  163.4996 O.3     1  UNL1       -0.4733
      9 C         138.4404  140.6089  164.7596 C.ar    1  UNL1        0.1415
     10 C         138.2591  139.5015  165.7549 C.ar    1  UNL1        0.0370
     11 C         138.9462  139.5699  167.0865 C.ar    1  UNL1        0.0031
     12 C         139.8147  140.7458  167.4228 C.ar    1  UNL1        0.0004
     13 C         139.9959  141.8533  166.4275 C.ar    1  UNL1        0.0061
     14 C         139.3088  141.7848  165.0959 C.ar    1  UNL1        0.0699
     15 C         140.5018  140.8142  168.7544 C.ar    1  UNL1        0.0031
     16 C         140.0268  141.7850  169.7945 C.ar    1  UNL1        0.0207
     17 C         140.7140  141.8534  171.1262 C.ar    1  UNL1        0.0989
     18 N         141.8761  140.9510  171.4176 N.ar    1  UNL1       -0.2423
     19 C         142.3512  139.9802  170.3774 C.ar    1  UNL1        0.0989
     20 C         141.6640  139.9118  169.0459 C.ar    1  UNL1        0.0207
     21 N         139.5266  145.3303  161.1624 N.pl3   1  UNL1       -0.2825
     22 H         138.7838  145.9686  161.0619 H       1  UNL1        0.1551
     23 C         141.1398  145.4803  157.5396 C.ar    1  UNL1        0.1480
     24 C         142.2822  144.5211  157.6980 C.ar    1  UNL1        0.0373
     25 C         142.5060  143.8317  159.0113 C.ar    1  UNL1        0.0044
     26 C         141.5874  144.1014  160.1661 C.ar    1  UNL1        0.0149
     27 C         140.4451  145.0606  160.0076 C.ar    1  UNL1        0.0535
     28 C         140.2213  145.7500  158.6944 C.ar    1  UNL1        0.0518
     29 O         140.9161  146.1697  156.2263 O.3     1  UNL1       -0.4044
     30 F         138.1445  146.3856  155.0985 F       1  UNL1       -0.1328
     31 C         139.5304  146.2776  155.6624 C.3     1  UNL1        0.5753
     32 F         139.6190  147.7735  155.7307 F       1  UNL1       -0.1328
     33 F         139.4416  144.7818  155.5941 F       1  UNL1       -0.1328
@<TRIPOS>BOND
     1    30    31    1
     2    31    32    1
     3    31    33    1
     4    31    29    1
     5    29    23    1
     6    23    24   ar
     7    24    25   ar
     8    25    26   ar
     9    26    27   ar
    10    27    21    1
    11    21     1    1
    12     1     2   ar
    13     2     3   ar
    14     3     4   ar
    15     4     5   ar
    16     5     6    1
    17     6     7    1
    18     7     8    1
    19     8     9    1
    20     9    10   ar
    21    10    11   ar
    22    11    12   ar
    23    12    15    1
    24    15    16   ar
    25    16    17   ar
    26    17    18   ar
    27    18    19   ar
    28    19    20   ar
    29    12    13   ar
    30    13    14   ar
    31    27    28   ar
    32    28    23   ar
    33     5     1   ar
    34    14     9   ar
    35    14     4    1
    36    20    15   ar
    37    21    22    1
@<TRIPOS>MOLECULE
*****
 33 37 0 0 0
SMALL
GASTEIGER

@<TRIPOS>ATOM
      1 C         139.7724  144.4994  162.4120 C.ar    1  UNL1        0.2224
      2 N         140.6107  145.0161  163.5434 N.ar    1  UNL1       -0.1127
      3 N         140.5302  144.0278  164.6689 N.ar    1  UNL1       -0.1273
      4 C         139.6421  142.9002  164.2330 C.ar    1  UNL1        0.1704
      5 N         139.1738  143.1918  162.8381 N.ar    1  UNL1       -0.2796
      6 C         138.2707  142.3726  161.9645 C.3     1  UNL1        0.1574
      7 C         137.6128  141.0595  162.2699 C.3     1  UNL1        0.2299
      8 O         137.6957  140.2415  163.5244 O.3     1  UNL1       -0.4733
      9 C         138.4568  140.5343  164.7834 C.ar    1  UNL1        0.1415
     10 C         138.2684  139.4498  165.8024 C.ar    1  UNL1        0.0370
     11 C         138.9464  139.5487  167.1368 C.ar    1  UNL1        0.0031
     12 C         139.8126  140.7320  167.4521 C.ar    1  UNL1        0.0004
     13 C         140.0009  141.8164  166.4331 C.ar    1  UNL1        0.0061
     14 C         139.3230  141.7176  165.0988 C.ar    1  UNL1        0.0699
     15 C         140.4906  140.8307  168.7866 C.ar    1  UNL1        0.0031
     16 C         140.0119  141.8287  169.7990 C.ar    1  UNL1        0.0207
     17 C         140.6898  141.9275  171.1334 C.ar    1  UNL1        0.0989
     18 N         141.8464  141.0283  171.4555 N.ar    1  UNL1       -0.2423
     19 C         142.3251  140.0303  170.4430 C.ar    1  UNL1        0.0989
     20 C         141.6472  139.9315  169.1086 C.ar    1  UNL1        0.0207
     21 N         139.5685  145.1723  161.0869 N.pl3   1  UNL1       -0.2825
     22 H         138.8000  145.7728  160.9529 H       1  UNL1        0.1551
     23 C         142.6429  143.7315  159.0321 C.ar    1  UNL1        0.1480
     24 C         142.4698  144.4460  157.7246 C.ar    1  UNL1        0.0373
     25 C         141.3295  145.4026  157.5379 C.ar    1  UNL1        0.0044
     26 C         140.3625  145.6447  158.6587 C.ar    1  UNL1        0.0149
     27 C         140.5356  144.9302  159.9662 C.ar    1  UNL1        0.0535
     28 C         141.6758  143.9736  160.1528 C.ar    1  UNL1        0.0518
     29 O         143.7831  142.7749  159.2187 O.3     1  UNL1       -0.4044
     30 F         144.0645  141.2605  161.7932 F       1  UNL1       -0.1328
     31 C         143.9238  142.0177  160.5059 C.3     1  UNL1        0.5753
     32 F         144.7820  143.1169  161.0587 F       1  UNL1       -0.1328
     33 F         143.0657  140.9186  159.9532 F       1  UNL1       -0.1328
@<TRIPOS>BOND
     1    30    31    1
     2    31    32    1
     3    31    33    1
     4    31    29    1
     5    29    23    1
     6    23    24   ar
     7    24    25   ar
     8    25    26   ar
     9    26    27   ar
    10    27    21    1
    11    21     1    1
    12     1     2   ar
    13     2     3   ar
    14     3     4   ar
    15     4     5   ar
    16     5     6    1
    17     6     7    1
    18     7     8    1
    19     8     9    1
    20     9    10   ar
    21    10    11   ar
    22    11    12   ar
    23    12    15    1
    24    15    16   ar
    25    16    17   ar
    26    17    18   ar
    27    18    19   ar
    28    19    20   ar
    29    12    13   ar
    30    13    14   ar
    31    27    28   ar
    32    28    23   ar
    33     5     1   ar
    34    14     9   ar
    35    14     4    1
    36    20    15   ar
    37    21    22    1
@<TRIPOS>MOLECULE
*****
 33 37 0 0 0
SMALL
GASTEIGER

@<TRIPOS>ATOM
      1 C         143.4824  138.5017  162.8787 C.ar    1  UNL1        0.2224
      2 N         144.2232  139.2146  163.9709 N.ar    1  UNL1       -0.1127
      3 N         143.2505  139.5114  165.0735 N.ar    1  UNL1       -0.1273
      4 C         141.9084  138.9820  164.6626 C.ar    1  UNL1        0.1704
      5 N         142.0519  138.3579  163.3061 N.ar    1  UNL1       -0.2796
      6 C         141.0016  137.6921  162.4673 C.3     1  UNL1        0.1574
      7 C         139.5486  137.4860  162.7776 C.3     1  UNL1        0.2299
      8 O         138.7870  137.8947  164.0036 O.3     1  UNL1       -0.4733
      9 C         139.2903  138.6105  165.2220 C.ar    1  UNL1        0.1415
     10 C         138.1938  138.8272  166.2223 C.ar    1  UNL1        0.0370
     11 C         138.4865  139.5278  167.5159 C.ar    1  UNL1        0.0031
     12 C         139.8756  140.0117  167.8092 C.ar    1  UNL1        0.0004
     13 C         140.9721  139.7950  166.8089 C.ar    1  UNL1        0.0061
     14 C         140.6795  139.0944  165.5153 C.ar    1  UNL1        0.0699
     15 C         140.1683  140.7124  169.1028 C.ar    1  UNL1        0.0031
     16 C         139.8900  142.1799  169.2406 C.ar    1  UNL1        0.0207
     17 C         140.1827  142.8805  170.5343 C.ar    1  UNL1        0.0989
     18 N         140.7536  142.1136  171.6901 N.ar    1  UNL1       -0.2423
     19 C         141.0318  140.6461  171.5523 C.ar    1  UNL1        0.0989
     20 C         140.7392  139.9455  170.2587 C.ar    1  UNL1        0.0207
     21 N         144.0692  138.0175  161.5858 N.pl3   1  UNL1       -0.2825
     22 H         144.7516  137.3080  161.5902 H       1  UNL1        0.1551
     23 C         143.4849  140.6409  158.6659 C.ar    1  UNL1        0.1480
     24 C         142.7102  139.8085  157.6877 C.ar    1  UNL1        0.0373
     25 C         142.3885  138.3790  158.0089 C.ar    1  UNL1        0.0044
     26 C         142.8415  137.7820  159.3083 C.ar    1  UNL1        0.0149
     27 C         143.6162  138.6145  160.2865 C.ar    1  UNL1        0.0535
     28 C         143.9379  140.0440  159.9652 C.ar    1  UNL1        0.0518
     29 O         143.8066  142.0704  158.3446 O.3     1  UNL1       -0.4044
     30 F         146.6015  142.8425  157.5748 F       1  UNL1       -0.1328
     31 C         145.2040  142.4564  157.9597 C.3     1  UNL1        0.5753
     32 F         144.9125  142.0910  156.5344 F       1  UNL1       -0.1328
     33 F         145.4957  142.8219  159.3850 F       1  UNL1       -0.1328
@<TRIPOS>BOND
     1    30    31    1
     2    31    32    1
     3    31    33    1
     4    31    29    1
     5    29    23    1
     6    23    24   ar
     7    24    25   ar
     8    25    26   ar
     9    26    27   ar
    10    27    21    1
    11    21     1    1
    12     1     2   ar
    13     2     3   ar
    14     3     4   ar
    15     4     5   ar
    16     5     6    1
    17     6     7    1
    18     7     8    1
    19     8     9    1
    20     9    10   ar
    21    10    11   ar
    22    11    12   ar
    23    12    15    1
    24    15    16   ar
    25    16    17   ar
    26    17    18   ar
    27    18    19   ar
    28    19    20   ar
    29    12    13   ar
    30    13    14   ar
    31    27    28   ar
    32    28    23   ar
    33     5     1   ar
    34    14     9   ar
    35    14     4    1
    36    20    15   ar
    37    21    22    1
@<TRIPOS>MOLECULE
*****
 33 37 0 0 0
SMALL
GASTEIGER

@<TRIPOS>ATOM
      1 C         138.7253  143.1332  162.1103 C.ar    1  UNL1        0.2224
      2 N         137.8228  143.0095  163.3019 N.ar    1  UNL1       -0.1127
      3 N         138.6831  142.8614  164.5217 N.ar    1  UNL1       -0.1273
      4 C         140.1175  142.8936  164.0838 C.ar    1  UNL1        0.1704
      5 N         140.1435  143.0616  162.5935 N.ar    1  UNL1       -0.2796
      6 C         141.3323  143.1502  161.6830 C.3     1  UNL1        0.1574
      7 C         142.7886  143.0926  162.0379 C.3     1  UNL1        0.2299
      8 O         143.4157  142.9322  163.3910 O.3     1  UNL1       -0.4733
      9 C         142.7415  142.7898  164.7235 C.ar    1  UNL1        0.1415
     10 C         143.7425  142.6526  165.8322 C.ar    1  UNL1        0.0370
     11 C         143.2755  142.4981  167.2492 C.ar    1  UNL1        0.0031
     12 C         141.8076  142.4809  167.5575 C.ar    1  UNL1        0.0004
     13 C         140.8067  142.6182  166.4488 C.ar    1  UNL1        0.0061
     14 C         141.2737  142.7726  165.0318 C.ar    1  UNL1        0.0699
     15 C         141.3407  142.3265  168.9747 C.ar    1  UNL1        0.0031
     16 C         140.3292  143.2795  169.5391 C.ar    1  UNL1        0.0207
     17 C         139.8622  143.1250  170.9563 C.ar    1  UNL1        0.0989
     18 N         140.4068  142.0175  171.8089 N.ar    1  UNL1       -0.2423
     19 C         141.4184  141.0645  171.2443 C.ar    1  UNL1        0.0989
     20 C         141.8853  141.2190  169.8273 C.ar    1  UNL1        0.0207
     21 N         138.2867  143.2994  160.6854 N.pl3   1  UNL1       -0.2825
     22 H         137.8673  144.1413  160.3945 H       1  UNL1        0.1551
     23 C         139.0086  139.6857  159.2125 C.ar    1  UNL1        0.1480
     24 C         138.8875  139.9500  157.7409 C.ar    1  UNL1        0.0373
     25 C         138.5662  141.3309  157.2509 C.ar    1  UNL1        0.0044
     26 C         138.3659  142.4473  158.2324 C.ar    1  UNL1        0.0149
     27 C         138.4870  142.1830  159.7040 C.ar    1  UNL1        0.0535
     28 C         138.8083  140.8022  160.1940 C.ar    1  UNL1        0.0518
     29 O         139.3299  138.3049  159.7025 O.3     1  UNL1       -0.4044
     30 F         139.5752  137.7768  162.6455 F       1  UNL1       -0.1328
     31 C         139.4525  138.0409  161.1740 C.3     1  UNL1        0.5753
     32 F         140.9452  138.1451  161.0683 F       1  UNL1       -0.1328
     33 F         137.9599  137.9366  161.2797 F       1  UNL1       -0.1328
@<TRIPOS>BOND
     1    30    31    1
     2    31    32    1
     3    31    33    1
     4    31    29    1
     5    29    23    1
     6    23    24   ar
     7    24    25   ar
     8    25    26   ar
     9    26    27   ar
    10    27    21    1
    11    21     1    1
    12     1     2   ar
    13     2     3   ar
    14     3     4   ar
    15     4     5   ar
    16     5     6    1
    17     6     7    1
    18     7     8    1
    19     8     9    1
    20     9    10   ar
    21    10    11   ar
    22    11    12   ar
    23    12    15    1
    24    15    16   ar
    25    16    17   ar
    26    17    18   ar
    27    18    19   ar
    28    19    20   ar
    29    12    13   ar
    30    13    14   ar
    31    27    28   ar
    32    28    23   ar
    33     5     1   ar
    34    14     9   ar
    35    14     4    1
    36    20    15   ar
    37    21    22    1
@<TRIPOS>MOLECULE
*****
 33 37 0 0 0
SMALL
GASTEIGER

@<TRIPOS>ATOM
      1 C         141.4107  144.9108  161.5511 C.ar    1  UNL1        0.2224
      2 N         140.4355  145.3853  162.5874 N.ar    1  UNL1       -0.1127
      3 N         140.5741  144.5032  163.7927 N.ar    1  UNL1       -0.1273
      4 C         141.6350  143.4835  163.5012 C.ar    1  UNL1        0.1704
      5 N         142.1519  143.7355  162.1159 N.ar    1  UNL1       -0.2796
      6 C         143.2151  142.9903  161.3645 C.3     1  UNL1        0.1574
      7 C         144.0238  141.8092  161.8129 C.3     1  UNL1        0.2299
      8 O         143.9689  141.0815  163.1235 O.3     1  UNL1       -0.4733
      9 C         143.0920  141.3552  164.3093 C.ar    1  UNL1        0.1415
     10 C         143.3574  140.3856  165.4225 C.ar    1  UNL1        0.0370
     11 C         142.5841  140.4850  166.7039 C.ar    1  UNL1        0.0031
     12 C         141.5454  141.5540  166.8721 C.ar    1  UNL1        0.0004
     13 C         141.2799  142.5236  165.7588 C.ar    1  UNL1        0.0061
     14 C         142.0533  142.4242  164.4774 C.ar    1  UNL1        0.0699
     15 C         140.7720  141.6534  168.1536 C.ar    1  UNL1        0.0031
     16 C         139.9879  140.4748  168.6497 C.ar    1  UNL1        0.0207
     17 C         139.2146  140.5742  169.9312 C.ar    1  UNL1        0.0989
     18 N         139.2253  141.8521  170.7165 N.ar    1  UNL1       -0.2423
     19 C         140.0095  143.0307  170.2203 C.ar    1  UNL1        0.0989
     20 C         140.7828  142.9313  168.9389 C.ar    1  UNL1        0.0207
     21 N         141.6096  145.5071  160.1892 N.pl3   1  UNL1       -0.2825
     22 H         142.2624  146.2327  160.0600 H       1  UNL1        0.1551
     23 C         140.0258  145.2393  156.5602 C.ar    1  UNL1        0.1480
     24 C         139.2229  143.9793  156.6935 C.ar    1  UNL1        0.0373
     25 C         139.2157  143.2285  157.9921 C.ar    1  UNL1        0.0044
     26 C         140.0113  143.7378  159.1573 C.ar    1  UNL1        0.0149
     27 C         140.8141  144.9978  159.0240 C.ar    1  UNL1        0.0535
     28 C         140.8213  145.7486  157.7254 C.ar    1  UNL1        0.0518
     29 O         140.0330  145.9901  155.2616 O.3     1  UNL1       -0.4044
     30 F         139.1911  148.8687  155.1884 F       1  UNL1       -0.1328
     31 C         139.6121  147.4293  155.2250 C.3     1  UNL1        0.5753
     32 F         138.4750  147.1204  156.1532 F       1  UNL1       -0.1328
     33 F         140.7491  147.7384  154.2968 F       1  UNL1       -0.1328
@<TRIPOS>BOND
     1    30    31    1
     2    31    32    1
     3    31    33    1
     4    31    29    1
     5    29    23    1
     6    23    24   ar
     7    24    25   ar
     8    25    26   ar
     9    26    27   ar
    10    27    21    1
    11    21     1    1
    12     1     2   ar
    13     2     3   ar
    14     3     4   ar
    15     4     5   ar
    16     5     6    1
    17     6     7    1
    18     7     8    1
    19     8     9    1
    20     9    10   ar
    21    10    11   ar
    22    11    12   ar
    23    12    15    1
    24    15    16   ar
    25    16    17   ar
    26    17    18   ar
    27    18    19   ar
    28    19    20   ar
    29    12    13   ar
    30    13    14   ar
    31    27    28   ar
    32    28    23   ar
    33     5     1   ar
    34    14     9   ar
    35    14     4    1
    36    20    15   ar
    37    21    22    1
@<TRIPOS>MOLECULE
*****
 33 37 0 0 0
SMALL
GASTEIGER

@<TRIPOS>ATOM
      1 C         143.2294  138.2393  162.5503 C.ar    1  UNL1        0.2224
      2 N         144.1404  138.9235  163.5260 N.ar    1  UNL1       -0.1127
      3 N         143.3236  139.3291  164.7169 N.ar    1  UNL1       -0.1273
      4 C         141.9077  138.8957  164.4771 C.ar    1  UNL1        0.1704
      5 N         141.8496  138.2222  163.1381 N.ar    1  UNL1       -0.2796
      6 C         140.6641  137.6170  162.4464 C.3     1  UNL1        0.1574
      7 C         139.2440  137.5360  162.9227 C.3     1  UNL1        0.2299
      8 O         138.6588  138.0400  164.2086 O.3     1  UNL1       -0.4733
      9 C         139.3489  138.7497  165.3356 C.ar    1  UNL1        0.1415
     10 C         138.3918  139.0823  166.4416 C.ar    1  UNL1        0.0370
     11 C         138.8807  139.7957  167.6672 C.ar    1  UNL1        0.0031
     12 C         140.3266  140.1765  167.7867 C.ar    1  UNL1        0.0004
     13 C         141.2837  139.8439  166.6807 C.ar    1  UNL1        0.0061
     14 C         140.7948  139.1305  165.4551 C.ar    1  UNL1        0.0699
     15 C         140.8154  140.8899  169.0123 C.ar    1  UNL1        0.0031
     16 C         140.5796  140.2967  170.3696 C.ar    1  UNL1        0.0207
     17 C         141.0685  141.0101  171.5953 C.ar    1  UNL1        0.0989
     18 N         141.7931  142.3169  171.4635 N.ar    1  UNL1       -0.2423
     19 C         142.0289  142.9101  170.1061 C.ar    1  UNL1        0.0989
     20 C         141.5400  142.1967  168.8806 C.ar    1  UNL1        0.0207
     21 N         143.6283  137.6720  161.2202 N.pl3   1  UNL1       -0.2825
     22 H         144.0690  136.7929  161.1722 H       1  UNL1        0.1551
     23 C         142.4532  138.5331  157.5287 C.ar    1  UNL1        0.1480
     24 C         142.8106  139.9877  157.4495 C.ar    1  UNL1        0.0373
     25 C         143.4406  140.6704  158.6273 C.ar    1  UNL1        0.0044
     26 C         143.7132  139.8985  159.8841 C.ar    1  UNL1        0.0149
     27 C         143.3557  138.4439  159.9634 C.ar    1  UNL1        0.0535
     28 C         142.7257  137.7612  158.7856 C.ar    1  UNL1        0.0518
     29 O         141.8231  137.8504  156.3510 O.3     1  UNL1       -0.4044
     30 F         143.2521  135.5946  154.9836 F       1  UNL1       -0.1328
     31 C         142.5376  136.7226  155.6673 C.3     1  UNL1        0.5753
     32 F         141.5749  135.7450  156.2738 F       1  UNL1       -0.1328
     33 F         143.5003  137.6999  155.0608 F       1  UNL1       -0.1328
@<TRIPOS>BOND
     1    30    31    1
     2    31    32    1
     3    31    33    1
     4    31    29    1
     5    29    23    1
     6    23    24   ar
     7    24    25   ar
     8    25    26   ar
     9    26    27   ar
    10    27    21    1
    11    21     1    1
    12     1     2   ar
    13     2     3   ar
    14     3     4   ar
    15     4     5   ar
    16     5     6    1
    17     6     7    1
    18     7     8    1
    19     8     9    1
    20     9    10   ar
    21    10    11   ar
    22    11    12   ar
    23    12    15    1
    24    15    16   ar
    25    16    17   ar
    26    17    18   ar
    27    18    19   ar
    28    19    20   ar
    29    12    13   ar
    30    13    14   ar
    31    27    28   ar
    32    28    23   ar
    33     5     1   ar
    34    14     9   ar
    35    14     4    1
    36    20    15   ar
    37    21    22    1
@<TRIPOS>MOLECULE
*****
 33 37 0 0 0
SMALL
GASTEIGER

@<TRIPOS>ATOM
      1 C         138.2911  140.3734  162.3601 C.ar    1  UNL1        0.2224
      2 N         137.8258  141.2548  163.4811 N.ar    1  UNL1       -0.1127
      3 N         138.7654  141.0710  164.6359 N.ar    1  UNL1       -0.1273
      4 C         139.8114  140.0760  164.2284 C.ar    1  UNL1        0.1704
      5 N         139.5181  139.6449  162.8220 N.ar    1  UNL1       -0.2796
      6 C         140.2697  138.6676  161.9674 C.3     1  UNL1        0.1574
      7 C         141.5000  137.8801  162.3083 C.3     1  UNL1        0.2299
      8 O         142.2826  137.8754  163.5879 O.3     1  UNL1       -0.4733
      9 C         142.0283  138.6570  164.8427 C.ar    1  UNL1        0.1415
     10 C         143.0560  138.3567  165.8932 C.ar    1  UNL1        0.0370
     11 C         142.9840  139.0357  167.2287 C.ar    1  UNL1        0.0031
     12 C         141.8841  140.0151  167.5138 C.ar    1  UNL1        0.0004
     13 C         140.8564  140.3154  166.4633 C.ar    1  UNL1        0.0061
     14 C         140.9285  139.6363  165.1278 C.ar    1  UNL1        0.0699
     15 C         141.8121  140.6941  168.8494 C.ar    1  UNL1        0.0031
     16 C         142.5850  141.9566  169.0915 C.ar    1  UNL1        0.0207
     17 C         142.5129  142.6357  170.4271 C.ar    1  UNL1        0.0989
     18 N         141.6679  142.0521  171.5205 N.ar    1  UNL1       -0.2423
     19 C         140.8950  140.7896  171.2783 C.ar    1  UNL1        0.0989
     20 C         140.9671  140.1106  169.9428 C.ar    1  UNL1        0.0207
     21 N         137.6429  140.2434  161.0136 N.pl3   1  UNL1       -0.2825
     22 H         136.8936  139.6177  160.8863 H       1  UNL1        0.1551
     23 C         139.2124  143.2506  158.9537 C.ar    1  UNL1        0.1480
     24 C         139.1234  142.7137  157.5559 C.ar    1  UNL1        0.0373
     25 C         138.5409  141.3533  157.3107 C.ar    1  UNL1        0.0044
     26 C         138.0474  140.5299  158.4633 C.ar    1  UNL1        0.0149
     27 C         138.1364  141.0668  159.8611 C.ar    1  UNL1        0.0535
     28 C         138.7189  142.4272  160.1063 C.ar    1  UNL1        0.0518
     29 O         139.7949  144.6110  159.1989 O.3     1  UNL1       -0.4044
     30 F         141.6742  145.0463  161.4965 F       1  UNL1       -0.1328
     31 C         140.7345  144.8286  160.3476 C.3     1  UNL1        0.5753
     32 F         139.7336  145.7401  160.9937 F       1  UNL1       -0.1328
     33 F         141.7355  143.9172  159.7017 F       1  UNL1       -0.1328
@<TRIPOS>BOND
     1    30    31    1
     2    31    32    1
     3    31    33    1
     4    31    29    1
     5    29    23    1
     6    23    24   ar
     7    24    25   ar
     8    25    26   ar
     9    26    27   ar
    10    27    21    1
    11    21     1    1
    12     1     2   ar
    13     2     3   ar
    14     3     4   ar
    15     4     5   ar
    16     5     6    1
    17     6     7    1
    18     7     8    1
    19     8     9    1
    20     9    10   ar
    21    10    11   ar
    22    11    12   ar
    23    12    15    1
    24    15    16   ar
    25    16    17   ar
    26    17    18   ar
    27    18    19   ar
    28    19    20   ar
    29    12    13   ar
    30    13    14   ar
    31    27    28   ar
    32    28    23   ar
    33     5     1   ar
    34    14     9   ar
    35    14     4    1
    36    20    15   ar
    37    21    22    1
@<TRIPOS>MOLECULE
*****
 33 37 0 0 0
SMALL
GASTEIGER

@<TRIPOS>ATOM
      1 C         139.3948  143.4224  160.8889 C.ar    1  UNL1        0.2224
      2 N         138.2806  143.2430  161.8771 N.ar    1  UNL1       -0.1127
      3 N         138.8914  142.9877  163.2231 N.ar    1  UNL1       -0.1273
      4 C         140.3832  143.0093  163.0668 C.ar    1  UNL1        0.1704
      5 N         140.6942  143.2780  161.6242 N.ar    1  UNL1       -0.2796
      6 C         142.0354  143.3950  160.9627 C.3     1  UNL1        0.1574
      7 C         143.3968  143.2723  161.5805 C.3     1  UNL1        0.2299
      8 O         143.7531  143.0022  163.0123 O.3     1  UNL1       -0.4733
      9 C         142.8362  142.7881  164.1800 C.ar    1  UNL1        0.1415
     10 C         143.6062  142.5473  165.4445 C.ar    1  UNL1        0.0370
     11 C         142.8765  142.3096  166.7332 C.ar    1  UNL1        0.0031
     12 C         141.3767  142.3127  166.7575 C.ar    1  UNL1        0.0004
     13 C         140.6066  142.5536  165.4930 C.ar    1  UNL1        0.0061
     14 C         141.3364  142.7913  164.2042 C.ar    1  UNL1        0.0699
     15 C         140.6469  142.0750  168.0463 C.ar    1  UNL1        0.0031
     16 C         139.9692  140.7598  168.2929 C.ar    1  UNL1        0.0207
     17 C         139.2394  140.5221  169.5817 C.ar    1  UNL1        0.0989
     18 N         139.1874  141.5996  170.6239 N.ar    1  UNL1       -0.2423
     19 C         139.8652  142.9149  170.3772 C.ar    1  UNL1        0.0989
     20 C         140.5949  143.1526  169.0885 C.ar    1  UNL1        0.0207
     21 N         139.2372  143.6979  159.4229 N.pl3   1  UNL1       -0.2825
     22 H         139.3458  144.6142  159.0797 H       1  UNL1        0.1551
     23 C         137.3601  141.5270  156.6818 C.ar    1  UNL1        0.1480
     24 C         138.2675  140.3360  156.5932 C.ar    1  UNL1        0.0373
     25 C         139.4983  140.2656  157.4479 C.ar    1  UNL1        0.0044
     26 C         139.8215  141.3862  158.3911 C.ar    1  UNL1        0.0149
     27 C         138.9140  142.5773  158.4797 C.ar    1  UNL1        0.0535
     28 C         137.6833  142.6476  157.6250 C.ar    1  UNL1        0.0518
     29 O         136.1293  141.5974  155.8271 O.3     1  UNL1       -0.4044
     30 F         134.5446  139.1114  155.2716 F       1  UNL1       -0.1328
     31 C         135.3370  140.3544  155.5494 C.3     1  UNL1        0.5753
     32 F         135.8813  140.3196  154.1520 F       1  UNL1       -0.1328
     33 F         134.7927  140.3891  156.9467 F       1  UNL1       -0.1328
@<TRIPOS>BOND
     1    30    31    1
     2    31    32    1
     3    31    33    1
     4    31    29    1
     5    29    23    1
     6    23    24   ar
     7    24    25   ar
     8    25    26   ar
     9    26    27   ar
    10    27    21    1
    11    21     1    1
    12     1     2   ar
    13     2     3   ar
    14     3     4   ar
    15     4     5   ar
    16     5     6    1
    17     6     7    1
    18     7     8    1
    19     8     9    1
    20     9    10   ar
    21    10    11   ar
    22    11    12   ar
    23    12    15    1
    24    15    16   ar
    25    16    17   ar
    26    17    18   ar
    27    18    19   ar
    28    19    20   ar
    29    12    13   ar
    30    13    14   ar
    31    27    28   ar
    32    28    23   ar
    33     5     1   ar
    34    14     9   ar
    35    14     4    1
    36    20    15   ar
    37    21    22    1
@<TRIPOS>MOLECULE
*****
 33 37 0 0 0
SMALL
GASTEIGER

@<TRIPOS>ATOM
      1 C         142.5042  137.6050  158.7689 C.ar    1  UNL1        0.2224
      2 N         143.0613  137.3437  160.1369 N.ar    1  UNL1       -0.1127
      3 N         142.1247  137.9463  161.1417 N.ar    1  UNL1       -0.1273
      4 C         140.9887  138.5800  160.3947 C.ar    1  UNL1        0.1704
      5 N         141.2234  138.3690  158.9282 N.ar    1  UNL1       -0.2796
      6 C         140.3762  138.8121  157.7724 C.3     1  UNL1        0.1574
      7 C         139.0852  139.5755  157.7974 C.3     1  UNL1        0.2299
      8 O         138.3226  140.0843  158.9847 O.3     1  UNL1       -0.4733
      9 C         138.6625  139.9556  160.4400 C.ar    1  UNL1        0.1415
     10 C         137.6263  140.6100  161.3048 C.ar    1  UNL1        0.0370
     11 C         137.7767  140.5950  162.7971 C.ar    1  UNL1        0.0031
     12 C         138.9633  139.9255  163.4246 C.ar    1  UNL1        0.0004
     13 C         139.9995  139.2710  162.5598 C.ar    1  UNL1        0.0061
     14 C         139.8491  139.2861  161.0675 C.ar    1  UNL1        0.0699
     15 C         139.1136  139.9104  164.9171 C.ar    1  UNL1        0.0031
     16 C         140.2274  140.6771  165.5664 C.ar    1  UNL1        0.0207
     17 C         140.3777  140.6621  167.0588 C.ar    1  UNL1        0.0989
     18 N         139.4143  139.8804  167.9018 N.ar    1  UNL1       -0.2423
     19 C         138.3005  139.1136  167.2524 C.ar    1  UNL1        0.0989
     20 C         138.1502  139.1287  165.7601 C.ar    1  UNL1        0.0207
     21 N         143.1200  137.1773  157.4697 N.pl3   1  UNL1       -0.2825
     22 H         143.7749  137.7590  157.0202 H       1  UNL1        0.1551
     23 C         142.9804  133.2792  156.7382 C.ar    1  UNL1        0.1480
     24 C         141.9742  133.2352  155.6266 C.ar    1  UNL1        0.0373
     25 C         141.3499  134.5053  155.1294 C.ar    1  UNL1        0.0044
     26 C         141.7319  135.8193  155.7438 C.ar    1  UNL1        0.0149
     27 C         142.7381  135.8633  156.8553 C.ar    1  UNL1        0.0535
     28 C         143.3624  134.5932  157.3525 C.ar    1  UNL1        0.0518
     29 O         143.6047  132.0091  157.2354 O.3     1  UNL1       -0.4044
     30 F         145.2296  130.3075  155.3741 F       1  UNL1       -0.1328
     31 C         144.4171  131.1583  156.3048 C.3     1  UNL1        0.5753
     32 F         143.2534  130.2262  156.1408 F       1  UNL1       -0.1328
     33 F         145.5810  132.0903  156.4687 F       1  UNL1       -0.1328
@<TRIPOS>BOND
     1    30    31    1
     2    31    32    1
     3    31    33    1
     4    31    29    1
     5    29    23    1
     6    23    24   ar
     7    24    25   ar
     8    25    26   ar
     9    26    27   ar
    10    27    21    1
    11    21     1    1
    12     1     2   ar
    13     2     3   ar
    14     3     4   ar
    15     4     5   ar
    16     5     6    1
    17     6     7    1
    18     7     8    1
    19     8     9    1
    20     9    10   ar
    21    10    11   ar
    22    11    12   ar
    23    12    15    1
    24    15    16   ar
    25    16    17   ar
    26    17    18   ar
    27    18    19   ar
    28    19    20   ar
    29    12    13   ar
    30    13    14   ar
    31    27    28   ar
    32    28    23   ar
    33     5     1   ar
    34    14     9   ar
    35    14     4    1
    36    20    15   ar
    37    21    22    1
