@<TRIPOS>MOLECULE
*****
 33 36 0 0 0
SMALL
GASTEIGER

@<TRIPOS>ATOM
      1 C         140.6935  139.9904  167.3550 C.ar    1  UNL1        0.0685
      2 C         141.0540  139.9063  168.8086 C.ar    1  UNL1        0.0885
      3 C         142.3643  139.3050  169.2227 C.ar    1  UNL1        0.1263
      4 N         143.3141  138.7876  168.1833 N.ar    1  UNL1       -0.1633
      5 N         142.9535  138.8717  166.7297 N.ar    1  UNL1       -0.2269
      6 C         143.6819  138.4480  165.4888 C.ar    1  UNL1        0.1019
      7 C         142.8218  138.7875  164.3077 C.ar    1  UNL1        0.0378
      8 C         141.5618  139.4210  164.8187 C.ar    1  UNL1        0.0234
      9 C         141.6432  139.4731  166.3156 C.ar    1  UNL1        0.0962
     10 C         143.1619  138.5374  162.8684 C.ar    1  UNL1        0.0770
     11 C         142.2962  137.8307  161.8678 C.ar    1  UNL1        0.0409
     12 C         143.0267  137.8066  160.5579 C.ar    1  UNL1        0.1214
     13 N         144.3439  138.4984  160.7489 N.ar    1  UNL1       -0.1711
     14 N         144.4275  138.9501  162.1769 N.ar    1  UNL1       -0.2756
     15 H         145.1806  139.4327  162.5881 H       1  UNL1        0.1889
     16 C         140.1042  140.4236  169.8480 C.2     1  UNL1        0.2456
     17 N         139.7333  139.5634  171.0195 N.am    1  UNL1       -0.3252
     18 O         139.5255  141.8011  169.7159 O.2     1  UNL1       -0.2703
     19 H         140.1132  138.6593  171.1061 H       1  UNL1        0.1453
     20 H         139.1100  139.9028  171.7017 H       1  UNL1        0.1453
     21 N         139.3832  140.5918  166.9408 N.pl3   1  UNL1       -0.3327
     22 H         138.5384  140.1914  167.2495 H       1  UNL1        0.1468
     23 C         138.0687  140.5812  165.1244 C.3     1  UNL1        0.0029
     24 C         138.5444  141.9682  164.8084 C.3     1  UNL1        0.0282
     25 C         137.6293  141.8433  163.6266 C.3     1  UNL1        0.0029
     26 C         139.3601  141.8031  166.0564 C.3     1  UNL1        0.0702
     27 C         140.1486  143.0620  166.2647 C.3     1  UNL1        0.0208
     28 C         139.8203  144.0051  165.1455 C.3     1  UNL1        0.0160
     29 C         138.8288  143.3291  164.2455 C.3     1  UNL1        0.0404
     30 C         137.8542  142.9197  163.1813 C.3     1  UNL1        0.0156
     31 N         138.9095  144.6044  163.4600 N.3     1  UNL1       -0.3231
     32 H         139.5615  145.2434  163.9151 H       1  UNL1        0.1188
     33 H         137.9861  145.0355  163.4157 H       1  UNL1        0.1188
@<TRIPOS>BOND
     1    23    24    1
     2    24    25    1
     3    24    26    1
     4    26    21    1
     5    21     1    1
     6     1     2   ar
     7     2    16    1
     8    16    17   am
     9    16    18    2
    10     2     3   ar
    11     3     4   ar
    12     4     5   ar
    13     5     6   ar
    14     6     7   ar
    15     7    10    1
    16    10    11   ar
    17    11    12   ar
    18    12    13   ar
    19    13    14   ar
    20     7     8   ar
    21     8     9   ar
    22    26    27    1
    23    27    28    1
    24    28    29    1
    25    29    30    1
    26    29    31    1
    27    29    24    1
    28     9     1   ar
    29     9     5   ar
    30    14    10   ar
    31    21    22    1
    32    17    19    1
    33    17    20    1
    34    14    15    1
    35    31    32    1
    36    31    33    1
@<TRIPOS>MOLECULE
*****
 33 36 0 0 0
SMALL
GASTEIGER

@<TRIPOS>ATOM
      1 C         141.8601  140.0258  167.4785 C.ar    1  UNL1        0.0685
      2 C         141.6687  140.2169  168.9539 C.ar    1  UNL1        0.0885
      3 C         140.2978  140.1082  169.5526 C.ar    1  UNL1        0.1263
      4 N         139.1180  139.8084  168.6760 N.ar    1  UNL1       -0.1633
      5 N         139.3094  139.6172  167.2006 N.ar    1  UNL1       -0.2269
      6 C         138.3431  139.3141  166.0941 C.ar    1  UNL1        0.1019
      7 C         139.1169  139.2354  164.8115 C.ar    1  UNL1        0.0378
      8 C         140.5615  139.4900  165.1253 C.ar    1  UNL1        0.0234
      9 C         140.6805  139.7260  166.6019 C.ar    1  UNL1        0.0962
     10 C         138.5464  138.9519  163.4536 C.ar    1  UNL1        0.0770
     11 C         137.9005  139.9530  162.5421 C.ar    1  UNL1        0.0409
     12 C         137.4765  139.2375  161.2938 C.ar    1  UNL1        0.1214
     13 N         137.8602  137.7941  161.4338 N.ar    1  UNL1       -0.1711
     14 N         138.5215  137.6177  162.7686 N.ar    1  UNL1       -0.2756
     15 H         138.8768  136.7742  163.1315 H       1  UNL1        0.1889
     16 C         142.8484  140.5168  169.8306 C.2     1  UNL1        0.2456
     17 N         143.2242  139.5702  170.9319 N.am    1  UNL1       -0.3252
     18 O         143.6522  141.7630  169.6059 O.2     1  UNL1       -0.2703
     19 H         142.6966  138.7522  171.0793 H       1  UNL1        0.1453
     20 H         143.9984  139.7670  171.5072 H       1  UNL1        0.1453
     21 N         143.2311  140.1345  166.8798 N.pl3   1  UNL1       -0.3327
     22 H         143.9394  139.5085  167.1548 H       1  UNL1        0.1468
     23 C         144.3006  139.5628  164.9938 C.3     1  UNL1        0.0029
     24 C         144.2253  140.9943  164.5522 C.3     1  UNL1        0.0282
     25 C         144.9433  140.4921  163.3347 C.3     1  UNL1        0.0029
     26 C         143.5230  141.1971  165.8620 C.3     1  UNL1        0.0702
     27 C         143.1637  142.6490  165.9753 C.3     1  UNL1        0.0208
     28 C         143.6440  143.3435  164.7356 C.3     1  UNL1        0.0160
     29 C         144.3000  142.3208  163.8560 C.3     1  UNL1        0.0404
     30 C         145.0025  141.5413  162.7841 C.3     1  UNL1        0.0156
     31 N         144.5217  143.4844  162.9358 N.3     1  UNL1       -0.3231
     32 H         144.1340  144.3290  163.3562 H       1  UNL1        0.1188
     33 H         144.0597  143.3056  162.0442 H       1  UNL1        0.1188
@<TRIPOS>BOND
     1    23    24    1
     2    24    25    1
     3    24    26    1
     4    26    21    1
     5    21     1    1
     6     1     2   ar
     7     2    16    1
     8    16    17   am
     9    16    18    2
    10     2     3   ar
    11     3     4   ar
    12     4     5   ar
    13     5     6   ar
    14     6     7   ar
    15     7    10    1
    16    10    11   ar
    17    11    12   ar
    18    12    13   ar
    19    13    14   ar
    20     7     8   ar
    21     8     9   ar
    22    26    27    1
    23    27    28    1
    24    28    29    1
    25    29    30    1
    26    29    31    1
    27    29    24    1
    28     9     1   ar
    29     9     5   ar
    30    14    10   ar
    31    21    22    1
    32    17    19    1
    33    17    20    1
    34    14    15    1
    35    31    32    1
    36    31    33    1
@<TRIPOS>MOLECULE
*****
 33 36 0 0 0
SMALL
GASTEIGER

@<TRIPOS>ATOM
      1 C         140.9270  138.9739  164.8857 C.ar    1  UNL1        0.0685
      2 C         139.7483  138.3118  164.2359 C.ar    1  UNL1        0.0885
      3 C         138.4131  138.3193  164.9190 C.ar    1  UNL1        0.1263
      4 N         138.2563  138.9890  166.2522 N.ar    1  UNL1       -0.1633
      5 N         139.4350  139.6510  166.9020 N.ar    1  UNL1       -0.2269
      6 C         139.5835  140.3845  168.2020 C.ar    1  UNL1        0.1019
      7 C         141.0107  140.8304  168.3222 C.ar    1  UNL1        0.0378
      8 C         141.7442  140.3724  167.0965 C.ar    1  UNL1        0.0234
      9 C         140.7704  139.6435  166.2188 C.ar    1  UNL1        0.0962
     10 C         141.6007  141.5992  169.4670 C.ar    1  UNL1        0.0770
     11 C         142.7790  142.5245  169.3934 C.ar    1  UNL1        0.0409
     12 C         143.0227  143.0749  170.7674 C.ar    1  UNL1        0.1214
     13 N         141.9950  142.4898  171.6902 N.ar    1  UNL1       -0.1711
     14 N         141.1162  141.5777  170.8864 N.ar    1  UNL1       -0.2756
     15 H         140.3550  141.0565  171.2302 H       1  UNL1        0.1889
     16 C         139.9051  137.6422  162.9028 C.2     1  UNL1        0.2456
     17 N         138.7746  137.6601  161.9171 N.am    1  UNL1       -0.3252
     18 O         141.1922  136.9549  162.5554 O.2     1  UNL1       -0.2703
     19 H         137.9298  138.1113  162.1451 H       1  UNL1        0.1453
     20 H         138.8774  137.2206  161.0421 H       1  UNL1        0.1453
     21 N         142.2624  138.9664  164.2025 N.pl3   1  UNL1       -0.3327
     22 H         142.7810  138.1315  164.1446 H       1  UNL1        0.1468
     23 C         144.4306  139.4552  164.4986 C.3     1  UNL1        0.0029
     24 C         144.2249  140.7121  163.7063 C.3     1  UNL1        0.0282
     25 C         145.6851  140.9306  163.9707 C.3     1  UNL1        0.0029
     26 C         142.8076  140.2309  163.6076 C.3     1  UNL1        0.0702
     27 C         142.0313  141.2361  162.8096 C.3     1  UNL1        0.0208
     28 C         142.9688  142.3386  162.4151 C.3     1  UNL1        0.0160
     29 C         144.3245  142.0147  162.9693 C.3     1  UNL1        0.0404
     30 C         145.7639  141.9609  163.3877 C.3     1  UNL1        0.0156
     31 N         144.7250  143.3061  162.3198 N.3     1  UNL1       -0.3231
     32 H         143.9148  143.7205  161.8590 H       1  UNL1        0.1188
     33 H         145.4543  143.1276  161.6294 H       1  UNL1        0.1188
@<TRIPOS>BOND
     1    23    24    1
     2    24    25    1
     3    24    26    1
     4    26    21    1
     5    21     1    1
     6     1     2   ar
     7     2    16    1
     8    16    17   am
     9    16    18    2
    10     2     3   ar
    11     3     4   ar
    12     4     5   ar
    13     5     6   ar
    14     6     7   ar
    15     7    10    1
    16    10    11   ar
    17    11    12   ar
    18    12    13   ar
    19    13    14   ar
    20     7     8   ar
    21     8     9   ar
    22    26    27    1
    23    27    28    1
    24    28    29    1
    25    29    30    1
    26    29    31    1
    27    29    24    1
    28     9     1   ar
    29     9     5   ar
    30    14    10   ar
    31    21    22    1
    32    17    19    1
    33    17    20    1
    34    14    15    1
    35    31    32    1
    36    31    33    1
@<TRIPOS>MOLECULE
*****
 33 36 0 0 0
SMALL
GASTEIGER

@<TRIPOS>ATOM
      1 C         142.1592  140.8997  167.0973 C.ar    1  UNL1        0.0685
      2 C         141.9702  140.5965  168.5542 C.ar    1  UNL1        0.0885
      3 C         140.9828  141.3850  169.3623 C.ar    1  UNL1        0.1263
      4 N         140.1843  142.4768  168.7137 N.ar    1  UNL1       -0.1633
      5 N         140.3733  142.7799  167.2569 N.ar    1  UNL1       -0.2269
      6 C         139.7336  143.7895  166.3506 C.ar    1  UNL1        0.1019
      7 C         140.3256  143.6249  164.9823 C.ar    1  UNL1        0.0378
      8 C         141.3313  142.5136  165.0429 C.ar    1  UNL1        0.0234
      9 C         141.3608  141.9913  166.4487 C.ar    1  UNL1        0.0962
     10 C         139.9738  144.4302  163.7666 C.ar    1  UNL1        0.0770
     11 C         140.9354  145.1993  162.9100 C.ar    1  UNL1        0.0409
     12 C         140.1545  145.8522  161.8082 C.ar    1  UNL1        0.1214
     13 N         138.7103  145.4867  161.9839 N.ar    1  UNL1       -0.1711
     14 N         138.5987  144.6078  163.1944 N.ar    1  UNL1       -0.2756
     15 H         137.7686  144.2163  163.5506 H       1  UNL1        0.1889
     16 C         142.7687  139.5048  169.2028 C.2     1  UNL1        0.2456
     17 N         143.0441  139.5514  170.6765 N.am    1  UNL1       -0.3252
     18 O         143.2916  138.3666  168.3777 O.2     1  UNL1       -0.2703
     19 H         142.7009  140.2985  171.2181 H       1  UNL1        0.1453
     20 H         143.5682  138.8349  171.1023 H       1  UNL1        0.1453
     21 N         143.1466  140.1111  166.2892 N.pl3   1  UNL1       -0.3327
     22 H         144.1084  140.1726  166.4906 H       1  UNL1        0.1468
     23 C         144.3034  140.0710  164.3688 C.3     1  UNL1        0.0029
     24 C         143.3160  139.0791  163.8292 C.3     1  UNL1        0.0282
     25 C         144.1696  139.1367  162.5971 C.3     1  UNL1        0.0029
     26 C         142.6688  139.2289  165.1740 C.3     1  UNL1        0.0702
     27 C         141.4598  138.3416  165.2081 C.3     1  UNL1        0.0208
     28 C         141.3598  137.6435  163.8842 C.3     1  UNL1        0.0160
     29 C         142.5070  138.0993  163.0321 C.3     1  UNL1        0.0404
     30 C         143.5298  138.3617  161.9666 C.3     1  UNL1        0.0156
     31 N         141.9119  137.1743  162.0122 N.3     1  UNL1       -0.3231
     32 H         141.0775  136.7331  162.3991 H       1  UNL1        0.1188
     33 H         142.5931  136.4561  161.7659 H       1  UNL1        0.1188
@<TRIPOS>BOND
     1    23    24    1
     2    24    25    1
     3    24    26    1
     4    26    21    1
     5    21     1    1
     6     1     2   ar
     7     2    16    1
     8    16    17   am
     9    16    18    2
    10     2     3   ar
    11     3     4   ar
    12     4     5   ar
    13     5     6   ar
    14     6     7   ar
    15     7    10    1
    16    10    11   ar
    17    11    12   ar
    18    12    13   ar
    19    13    14   ar
    20     7     8   ar
    21     8     9   ar
    22    26    27    1
    23    27    28    1
    24    28    29    1
    25    29    30    1
    26    29    31    1
    27    29    24    1
    28     9     1   ar
    29     9     5   ar
    30    14    10   ar
    31    21    22    1
    32    17    19    1
    33    17    20    1
    34    14    15    1
    35    31    32    1
    36    31    33    1
@<TRIPOS>MOLECULE
*****
 33 36 0 0 0
SMALL
GASTEIGER

@<TRIPOS>ATOM
      1 C         140.6968  140.4209  167.3619 C.ar    1  UNL1        0.0685
      2 C         140.6041  140.6797  168.8365 C.ar    1  UNL1        0.0885
      3 C         141.5197  141.6772  169.4818 C.ar    1  UNL1        0.1263
      4 N         142.5281  142.4159  168.6527 N.ar    1  UNL1       -0.1633
      5 N         142.6208  142.1570  167.1781 N.ar    1  UNL1       -0.2269
      6 C         143.5084  142.7287  166.1126 C.ar    1  UNL1        0.1019
      7 C         143.1412  142.0845  164.8086 C.ar    1  UNL1        0.0378
      8 C         142.0268  141.1147  165.0683 C.ar    1  UNL1        0.0234
      9 C         141.7051  141.1595  166.5327 C.ar    1  UNL1        0.0962
     10 C         143.7769  142.3615  163.4785 C.ar    1  UNL1        0.0770
     11 C         144.4590  141.3546  162.6006 C.ar    1  UNL1        0.0409
     12 C         144.9458  142.0648  161.3723 C.ar    1  UNL1        0.1214
     13 N         144.5646  143.5107  161.4911 N.ar    1  UNL1       -0.1711
     14 N         143.8422  143.6941  162.7929 N.ar    1  UNL1       -0.2756
     15 H         143.4752  144.5404  163.1369 H       1  UNL1        0.1889
     16 C         139.5956  139.9410  169.6657 C.2     1  UNL1        0.2456
     17 N         139.9084  139.5901  171.0901 N.am    1  UNL1       -0.3252
     18 O         138.2746  139.5533  169.0704 O.2     1  UNL1       -0.2703
     19 H         140.7755  139.8446  171.4808 H       1  UNL1        0.1453
     20 H         139.2466  139.1053  171.6343 H       1  UNL1        0.1453
     21 N         139.7811  139.4234  166.7165 N.pl3   1  UNL1       -0.3327
     22 H         139.6530  138.5366  167.1246 H       1  UNL1        0.1468
     23 C         139.6953  137.9124  165.0621 C.3     1  UNL1        0.0029
     24 C         138.9053  138.8932  164.2473 C.3     1  UNL1        0.0282
     25 C         138.9154  137.8044  163.2156 C.3     1  UNL1        0.0029
     26 C         139.0604  139.7769  165.4493 C.3     1  UNL1        0.0702
     27 C         138.3684  141.0763  165.1617 C.3     1  UNL1        0.0208
     28 C         137.7856  140.9956  163.7820 C.3     1  UNL1        0.0160
     29 C         138.1175  139.6464  163.2168 C.3     1  UNL1        0.0404
     30 C         138.2922  138.4001  162.4005 C.3     1  UNL1        0.0156
     31 N         137.3661  140.1390  162.0157 N.3     1  UNL1       -0.3231
     32 H         137.0325  141.0873  162.1887 H       1  UNL1        0.1188
     33 H         136.5706  139.5260  161.8372 H       1  UNL1        0.1188
@<TRIPOS>BOND
     1    23    24    1
     2    24    25    1
     3    24    26    1
     4    26    21    1
     5    21     1    1
     6     1     2   ar
     7     2    16    1
     8    16    17   am
     9    16    18    2
    10     2     3   ar
    11     3     4   ar
    12     4     5   ar
    13     5     6   ar
    14     6     7   ar
    15     7    10    1
    16    10    11   ar
    17    11    12   ar
    18    12    13   ar
    19    13    14   ar
    20     7     8   ar
    21     8     9   ar
    22    26    27    1
    23    27    28    1
    24    28    29    1
    25    29    30    1
    26    29    31    1
    27    29    24    1
    28     9     1   ar
    29     9     5   ar
    30    14    10   ar
    31    21    22    1
    32    17    19    1
    33    17    20    1
    34    14    15    1
    35    31    32    1
    36    31    33    1
@<TRIPOS>MOLECULE
*****
 33 36 0 0 0
SMALL
GASTEIGER

@<TRIPOS>ATOM
      1 C         140.9245  139.6908  164.1445 C.ar    1  UNL1        0.0685
      2 C         140.4112  138.4679  163.4439 C.ar    1  UNL1        0.0885
      3 C         139.4168  137.5751  164.1251 C.ar    1  UNL1        0.1263
      4 N         138.9358  137.9052  165.5071 N.ar    1  UNL1       -0.1633
      5 N         139.4491  139.1281  166.2077 N.ar    1  UNL1       -0.2269
      6 C         139.1596  139.7050  167.5617 C.ar    1  UNL1        0.1019
      7 C         139.9750  140.9543  167.7173 C.ar    1  UNL1        0.0378
      8 C         140.7685  141.1496  166.4594 C.ar    1  UNL1        0.0234
      9 C         140.4435  140.0209  165.5264 C.ar    1  UNL1        0.0962
     10 C         139.9937  141.8510  168.9196 C.ar    1  UNL1        0.0770
     11 C         140.5138  143.2572  168.9627 C.ar    1  UNL1        0.0409
     12 C         140.3372  143.7742  170.3597 C.ar    1  UNL1        0.1214
     13 N         139.7078  142.6874  171.1800 N.ar    1  UNL1       -0.1711
     14 N         139.4956  141.4988  170.2900 N.ar    1  UNL1       -0.2756
     15 H         139.0989  140.6385  170.5581 H       1  UNL1        0.1889
     16 C         140.8922  138.1378  162.0619 C.2     1  UNL1        0.2456
     17 N         142.2177  137.4622  161.8707 N.am    1  UNL1       -0.3252
     18 O         140.0479  138.4834  160.8714 O.2     1  UNL1       -0.2703
     19 H         142.7719  137.2354  162.6522 H       1  UNL1        0.1453
     20 H         142.5335  137.2455  160.9638 H       1  UNL1        0.1453
     21 N         141.9189  140.5836  163.4632 N.pl3   1  UNL1       -0.3327
     22 H         142.7528  140.2057  163.1013 H       1  UNL1        0.1468
     23 C         143.5094  142.0424  164.0715 C.3     1  UNL1        0.0029
     24 C         142.5865  143.1620  163.6909 C.3     1  UNL1        0.0282
     25 C         143.7233  144.0375  164.1280 C.3     1  UNL1        0.0029
     26 C         141.6426  142.0523  163.3334 C.3     1  UNL1        0.0702
     27 C         140.3741  142.6691  162.8233 C.3     1  UNL1        0.0208
     28 C         140.5339  144.1600  162.8655 C.3     1  UNL1        0.0160
     29 C         141.9012  144.4645  163.4017 C.3     1  UNL1        0.0404
     30 C         143.1813  145.0678  163.8993 C.3     1  UNL1        0.0156
     31 N         141.4836  145.8933  163.2166 N.3     1  UNL1       -0.3231
     32 H         140.5356  145.9245  162.8414 H       1  UNL1        0.1188
     33 H         142.1217  146.3525  162.5668 H       1  UNL1        0.1188
@<TRIPOS>BOND
     1    23    24    1
     2    24    25    1
     3    24    26    1
     4    26    21    1
     5    21     1    1
     6     1     2   ar
     7     2    16    1
     8    16    17   am
     9    16    18    2
    10     2     3   ar
    11     3     4   ar
    12     4     5   ar
    13     5     6   ar
    14     6     7   ar
    15     7    10    1
    16    10    11   ar
    17    11    12   ar
    18    12    13   ar
    19    13    14   ar
    20     7     8   ar
    21     8     9   ar
    22    26    27    1
    23    27    28    1
    24    28    29    1
    25    29    30    1
    26    29    31    1
    27    29    24    1
    28     9     1   ar
    29     9     5   ar
    30    14    10   ar
    31    21    22    1
    32    17    19    1
    33    17    20    1
    34    14    15    1
    35    31    32    1
    36    31    33    1
@<TRIPOS>MOLECULE
*****
 33 36 0 0 0
SMALL
GASTEIGER

@<TRIPOS>ATOM
      1 C         143.0678  141.3868  164.3248 C.ar    1  UNL1        0.0685
      2 C         144.1538  140.7616  163.5003 C.ar    1  UNL1        0.0885
      3 C         144.7814  139.4723  163.9402 C.ar    1  UNL1        0.1263
      4 N         144.3231  138.8080  165.2047 N.ar    1  UNL1       -0.1633
      5 N         143.2371  139.4332  166.0291 N.ar    1  UNL1       -0.2269
      6 C         142.5831  139.0133  167.3121 C.ar    1  UNL1        0.1019
      7 C         141.5512  140.0432  167.6650 C.ar    1  UNL1        0.0378
      8 C         141.5675  141.0996  166.6003 C.ar    1  UNL1        0.0234
      9 C         142.6095  140.7226  165.5892 C.ar    1  UNL1        0.0962
     10 C         140.6596  140.0206  168.8711 C.ar    1  UNL1        0.0770
     11 C         139.2599  140.5551  168.9427 C.ar    1  UNL1        0.0409
     12 C         138.7463  140.3245  170.3331 C.ar    1  UNL1        0.1214
     13 N         139.8286  139.6475  171.1208 N.ar    1  UNL1       -0.1711
     14 N         141.0112  139.4597  170.2171 N.ar    1  UNL1       -0.2756
     15 H         141.8676  139.0418  170.4641 H       1  UNL1        0.1889
     16 C         144.6121  141.4259  162.2359 C.2     1  UNL1        0.2456
     17 N         145.6427  142.5143  162.2916 N.am    1  UNL1       -0.3252
     18 O         144.0399  141.0017  160.9159 O.2     1  UNL1       -0.2703
     19 H         146.0183  142.7927  163.1580 H       1  UNL1        0.1453
     20 H         145.9436  142.9503  161.4618 H       1  UNL1        0.1453
     21 N         142.4402  142.6762  163.8849 N.pl3   1  UNL1       -0.3327
     22 H         142.9019  143.5299  164.0498 H       1  UNL1        0.1468
     23 C         140.9273  144.2411  164.4232 C.3     1  UNL1        0.0029
     24 C         139.9853  143.6304  163.4283 C.3     1  UNL1        0.0282
     25 C         139.0586  144.7236  163.8711 C.3     1  UNL1        0.0029
     26 C         141.1089  142.6648  163.1935 C.3     1  UNL1        0.0702
     27 C         140.6677  141.6859  162.1462 C.3     1  UNL1        0.0208
     28 C         139.2714  142.0465  161.7336 C.3     1  UNL1        0.0160
     29 C         138.8497  143.2482  162.5260 C.3     1  UNL1        0.0404
     30 C         138.1604  144.4213  163.1574 C.3     1  UNL1        0.0156
     31 N         137.5699  143.1113  161.7557 N.3     1  UNL1       -0.3231
     32 H         137.6379  142.3148  161.1222 H       1  UNL1        0.1188
     33 H         137.4049  143.9614  161.2167 H       1  UNL1        0.1188
@<TRIPOS>BOND
     1    23    24    1
     2    24    25    1
     3    24    26    1
     4    26    21    1
     5    21     1    1
     6     1     2   ar
     7     2    16    1
     8    16    17   am
     9    16    18    2
    10     2     3   ar
    11     3     4   ar
    12     4     5   ar
    13     5     6   ar
    14     6     7   ar
    15     7    10    1
    16    10    11   ar
    17    11    12   ar
    18    12    13   ar
    19    13    14   ar
    20     7     8   ar
    21     8     9   ar
    22    26    27    1
    23    27    28    1
    24    28    29    1
    25    29    30    1
    26    29    31    1
    27    29    24    1
    28     9     1   ar
    29     9     5   ar
    30    14    10   ar
    31    21    22    1
    32    17    19    1
    33    17    20    1
    34    14    15    1
    35    31    32    1
    36    31    33    1
@<TRIPOS>MOLECULE
*****
 33 36 0 0 0
SMALL
GASTEIGER

@<TRIPOS>ATOM
      1 C         139.5190  141.3728  164.9469 C.ar    1  UNL1        0.0685
      2 C         138.4880  140.3245  164.6502 C.ar    1  UNL1        0.0885
      3 C         138.1333  139.3053  165.6919 C.ar    1  UNL1        0.1263
      4 N         138.8096  139.3344  167.0306 N.ar    1  UNL1       -0.1633
      5 N         139.8406  140.3827  167.3273 N.ar    1  UNL1       -0.2269
      6 C         140.6685  140.6593  168.5471 C.ar    1  UNL1        0.1019
      7 C         141.5348  141.8495  168.2592 C.ar    1  UNL1        0.0378
      8 C         141.2424  142.3084  166.8614 C.ar    1  UNL1        0.0234
      9 C         140.1953  141.4019  166.2854 C.ar    1  UNL1        0.0962
     10 C         142.5206  142.4715  169.2033 C.ar    1  UNL1        0.0770
     11 C         142.1872  143.2083  170.4667 C.ar    1  UNL1        0.0409
     12 C         143.4733  143.6581  171.0940 C.ar    1  UNL1        0.1214
     13 N         144.6016  143.1995  170.2184 N.ar    1  UNL1       -0.1711
     14 N         144.0127  142.4661  169.0498 N.ar    1  UNL1       -0.2756
     15 H         144.5170  142.0536  168.3117 H       1  UNL1        0.1889
     16 C         137.8116  140.2954  163.3115 C.2     1  UNL1        0.2456
     17 N         136.7382  141.2932  162.9919 N.am    1  UNL1       -0.3252
     18 O         138.2087  139.2687  162.2928 O.2     1  UNL1       -0.2703
     19 H         136.4776  141.9671  163.6606 H       1  UNL1        0.1453
     20 H         136.2943  141.2742  162.1133 H       1  UNL1        0.1453
     21 N         139.8736  142.3920  163.9050 N.pl3   1  UNL1       -0.3327
     22 H         139.1769  142.9815  163.5358 H       1  UNL1        0.1468
     23 C         140.8506  144.4102  163.9127 C.3     1  UNL1        0.0029
     24 C         142.0944  143.7774  163.3625 C.3     1  UNL1        0.0282
     25 C         142.6387  145.1742  163.4144 C.3     1  UNL1        0.0029
     26 C         141.2899  142.5130  163.4257 C.3     1  UNL1        0.0702
     27 C         142.1503  141.3908  162.9254 C.3     1  UNL1        0.0208
     28 C         143.4865  141.9616  162.5530 C.3     1  UNL1        0.0160
     29 C         143.4519  143.4367  162.8232 C.3     1  UNL1        0.0404
     30 C         143.7125  144.9047  162.9878 C.3     1  UNL1        0.0156
     31 N         144.8639  143.4028  162.3183 N.3     1  UNL1       -0.3231
     32 H         145.1111  142.4465  162.0637 H       1  UNL1        0.1188
     33 H         145.4942  143.7340  163.0487 H       1  UNL1        0.1188
@<TRIPOS>BOND
     1    23    24    1
     2    24    25    1
     3    24    26    1
     4    26    21    1
     5    21     1    1
     6     1     2   ar
     7     2    16    1
     8    16    17   am
     9    16    18    2
    10     2     3   ar
    11     3     4   ar
    12     4     5   ar
    13     5     6   ar
    14     6     7   ar
    15     7    10    1
    16    10    11   ar
    17    11    12   ar
    18    12    13   ar
    19    13    14   ar
    20     7     8   ar
    21     8     9   ar
    22    26    27    1
    23    27    28    1
    24    28    29    1
    25    29    30    1
    26    29    31    1
    27    29    24    1
    28     9     1   ar
    29     9     5   ar
    30    14    10   ar
    31    21    22    1
    32    17    19    1
    33    17    20    1
    34    14    15    1
    35    31    32    1
    36    31    33    1
@<TRIPOS>MOLECULE
*****
 33 36 0 0 0
SMALL
GASTEIGER

@<TRIPOS>ATOM
      1 C         142.5554  140.3582  163.5999 C.ar    1  UNL1        0.0685
      2 C         143.8030  139.7278  163.0556 C.ar    1  UNL1        0.0885
      3 C         144.7485  139.0176  163.9784 C.ar    1  UNL1        0.1263
      4 N         144.4464  138.9376  165.4455 N.ar    1  UNL1       -0.1633
      5 N         143.1989  139.5679  165.9898 N.ar    1  UNL1       -0.2269
      6 C         142.6402  139.6506  167.3794 C.ar    1  UNL1        0.1019
      7 C         141.3494  140.4120  167.3154 C.ar    1  UNL1        0.0378
      8 C         141.1103  140.7999  165.8863 C.ar    1  UNL1        0.0234
      9 C         142.2534  140.2782  165.0670 C.ar    1  UNL1        0.0962
     10 C         140.4547  140.7298  168.4767 C.ar    1  UNL1        0.0770
     11 C         140.4931  141.9814  169.3026 C.ar    1  UNL1        0.0409
     12 C         139.4267  141.8769  170.3523 C.ar    1  UNL1        0.1214
     13 N         138.7292  140.5608  170.1752 N.ar    1  UNL1       -0.1711
     14 N         139.3647  139.8518  169.0160 N.ar    1  UNL1       -0.2756
     15 H         139.1108  138.9658  168.6699 H       1  UNL1        0.1889
     16 C         144.1050  139.8078  161.5885 C.2     1  UNL1        0.2456
     17 N         144.4242  138.5602  160.8194 N.am    1  UNL1       -0.3252
     18 O         144.0878  141.1353  160.8905 O.2     1  UNL1       -0.2703
     19 H         144.4355  137.6888  161.2776 H       1  UNL1        0.1453
     20 H         144.6224  138.6126  159.8565 H       1  UNL1        0.1453
     21 N         141.6099  141.0684  162.6771 N.pl3   1  UNL1       -0.3327
     22 H         141.0703  140.5542  162.0341 H       1  UNL1        0.1468
     23 C         139.5980  142.0021  162.3486 C.3     1  UNL1        0.0029
     24 C         140.2258  143.3511  162.5392 C.3     1  UNL1        0.0282
     25 C         138.8336  143.8577  162.3044 C.3     1  UNL1        0.0029
     26 C         141.4867  142.5624  162.7341 C.3     1  UNL1        0.0702
     27 C         142.6027  143.5297  162.9961 C.3     1  UNL1        0.0208
     28 C         142.0315  144.9163  162.9631 C.3     1  UNL1        0.0160
     29 C         140.5625  144.8058  162.6807 C.3     1  UNL1        0.0404
     30 C         139.0999  145.0084  162.4163 C.3     1  UNL1        0.0156
     31 N         140.5934  146.3030  162.7669 N.3     1  UNL1       -0.3231
     32 H         141.5454  146.6127  162.9627 H       1  UNL1        0.1188
     33 H         139.9742  146.6134  163.5156 H       1  UNL1        0.1188
@<TRIPOS>BOND
     1    23    24    1
     2    24    25    1
     3    24    26    1
     4    26    21    1
     5    21     1    1
     6     1     2   ar
     7     2    16    1
     8    16    17   am
     9    16    18    2
    10     2     3   ar
    11     3     4   ar
    12     4     5   ar
    13     5     6   ar
    14     6     7   ar
    15     7    10    1
    16    10    11   ar
    17    11    12   ar
    18    12    13   ar
    19    13    14   ar
    20     7     8   ar
    21     8     9   ar
    22    26    27    1
    23    27    28    1
    24    28    29    1
    25    29    30    1
    26    29    31    1
    27    29    24    1
    28     9     1   ar
    29     9     5   ar
    30    14    10   ar
    31    21    22    1
    32    17    19    1
    33    17    20    1
    34    14    15    1
    35    31    32    1
    36    31    33    1
