@<TRIPOS>MOLECULE
*****
 32 37 0 0 0
SMALL
GASTEIGER

@<TRIPOS>ATOM
      1 C         143.9850  130.6491  154.5407 C.2     1  UNL1       -0.0198
      2 C         144.7936  131.1323  155.7079 C.2     1  UNL1       -0.0042
      3 C         144.4877  132.4608  156.3337 C.2     1  UNL1        0.0006
      4 C         143.3732  133.3060  155.7922 C.2     1  UNL1        0.0111
      5 C         142.8431  134.6489  156.1991 C.2     1  UNL1       -0.0044
      6 C         141.7069  134.9957  155.2833 C.2     1  UNL1        0.0689
      7 N         141.5347  133.8671  154.3104 N.2     1  UNL1       -0.2526
      8 C         142.5646  132.8228  154.6249 C.2     1  UNL1        0.0627
      9 C         142.8705  131.4943  153.9992 C.3     1  UNL1        0.0717
     10 C         140.9758  136.2944  155.4536 C.3     1  UNL1        0.0947
     11 N         141.3810  137.2463  156.5398 N.3     1  UNL1       -0.2887
     12 C         142.5173  136.8995  157.4556 C.3     1  UNL1        0.1161
     13 C         143.2484  135.6008  157.2852 C.3     1  UNL1        0.0510
     14 H         140.5604  137.3873  157.1291 H       1  UNL1        0.1239
     15 C         139.8396  136.6411  154.5379 C.3     1  UNL1        0.0202
     16 C         138.5769  137.2260  155.0977 C.3     1  UNL1        0.0017
     17 C         137.4406  137.5728  154.1819 C.3     1  UNL1        0.0001
     18 C         137.5671  137.3347  152.7063 C.3     1  UNL1        0.0000
     19 C         138.8298  136.7498  152.1466 C.3     1  UNL1        0.0001
     20 C         139.9661  136.4030  153.0624 C.3     1  UNL1        0.0017
     21 C         142.9225  137.8514  158.5418 C.ar    1  UNL1        0.1318
     22 N         142.8835  137.5756  160.0157 N.ar    1  UNL1       -0.2282
     23 C         143.3748  138.8000  160.7295 C.ar    1  UNL1        0.1187
     24 C         143.7174  139.8325  159.6968 C.ar    1  UNL1        0.0943
     25 N         143.4378  139.2463  158.3447 N.ar    1  UNL1       -0.3385
     26 H         143.5694  139.6977  157.4798 H       1  UNL1        0.1672
     27 C         143.5013  138.9631  162.2153 C.ar    1  UNL1        0.1195
     28 C         142.5586  138.2414  163.1320 C.ar    1  UNL1        0.1195
     29 N         142.6850  138.4045  164.6176 N.ar    1  UNL1       -0.2391
     30 C         143.7541  139.2894  165.1868 C.ar    1  UNL1        0.1195
     31 C         144.6969  140.0112  164.2700 C.ar    1  UNL1        0.1195
     32 N         144.5705  139.8480  162.7843 N.ar    1  UNL1       -0.2391
@<TRIPOS>BOND
     1     1     2    2
     2     2     3    1
     3     3     4    2
     4     4     5    1
     5     5     6    2
     6     6     7    1
     7     7     8    2
     8     8     9    1
     9     6    10    1
    10    10    15    1
    11    15    16    1
    12    16    17    1
    13    17    18    1
    14    18    19    1
    15    19    20    1
    16    10    11    1
    17    11    12    1
    18    12    21    1
    19    21    22   ar
    20    22    23   ar
    21    23    27    1
    22    27    28   ar
    23    28    29   ar
    24    29    30   ar
    25    30    31   ar
    26    31    32   ar
    27    23    24   ar
    28    24    25   ar
    29    12    13    1
    30     9     1    1
    31    20    15    1
    32    25    21   ar
    33     8     4    1
    34    32    27   ar
    35    13     5    1
    36    11    14    1
    37    25    26    1
@<TRIPOS>MOLECULE
*****
 32 37 0 0 0
SMALL
GASTEIGER

@<TRIPOS>ATOM
      1 C         144.2066  144.3986  164.6467 C.2     1  UNL1       -0.0198
      2 C         144.1116  144.6742  163.1753 C.2     1  UNL1       -0.0042
      3 C         143.1371  143.9087  162.3303 C.2     1  UNL1        0.0006
      4 C         142.2575  142.8675  162.9565 C.2     1  UNL1        0.0111
      5 C         141.2101  141.9606  162.3818 C.2     1  UNL1       -0.0044
      6 C         140.6577  141.1244  163.4979 C.2     1  UNL1        0.0689
      7 N         141.3638  141.5145  164.7625 N.2     1  UNL1       -0.2526
      8 C         142.3525  142.5918  164.4279 C.2     1  UNL1        0.0627
      9 C         143.3271  143.3574  165.2730 C.3     1  UNL1        0.0717
     10 C         139.5832  140.1158  163.2185 C.3     1  UNL1        0.0947
     11 N         139.0609  139.9434  161.8229 N.3     1  UNL1       -0.2887
     12 C         139.6133  140.7795  160.7067 C.3     1  UNL1        0.1161
     13 C         140.6879  141.7882  160.9862 C.3     1  UNL1        0.0510
     14 H         138.0581  140.1260  161.8591 H       1  UNL1        0.1239
     15 C         139.0309  139.2797  164.3346 C.3     1  UNL1        0.0202
     16 C         138.3912  139.9394  165.5202 C.3     1  UNL1        0.0017
     17 C         137.8389  139.1032  166.6363 C.3     1  UNL1        0.0001
     18 C         137.9261  137.6074  166.5669 C.3     1  UNL1        0.0000
     19 C         138.5657  136.9477  165.3812 C.3     1  UNL1        0.0001
     20 C         139.1181  137.7839  164.2651 C.3     1  UNL1        0.0017
     21 C         139.0911  140.6071  159.3112 C.ar    1  UNL1        0.1318
     22 N         137.7287  141.0031  158.8244 N.ar    1  UNL1       -0.2282
     23 C         137.6353  140.6491  157.3697 C.ar    1  UNL1        0.1187
     24 C         138.9400  140.0344  156.9575 C.ar    1  UNL1        0.0943
     25 N         139.8397  140.0084  158.1574 N.ar    1  UNL1       -0.3385
     26 H         140.7600  139.6597  158.1832 H       1  UNL1        0.1672
     27 C         136.4460  140.8709  156.4830 C.ar    1  UNL1        0.1195
     28 C         136.5595  141.7685  155.2865 C.ar    1  UNL1        0.1195
     29 N         135.3703  141.9903  154.3998 N.ar    1  UNL1       -0.2391
     30 C         134.0674  141.3147  154.7094 C.ar    1  UNL1        0.1195
     31 C         133.9538  140.4170  155.9059 C.ar    1  UNL1        0.1195
     32 N         135.1431  140.1952  156.7926 N.ar    1  UNL1       -0.2391
@<TRIPOS>BOND
     1     1     2    2
     2     2     3    1
     3     3     4    2
     4     4     5    1
     5     5     6    2
     6     6     7    1
     7     7     8    2
     8     8     9    1
     9     6    10    1
    10    10    15    1
    11    15    16    1
    12    16    17    1
    13    17    18    1
    14    18    19    1
    15    19    20    1
    16    10    11    1
    17    11    12    1
    18    12    21    1
    19    21    22   ar
    20    22    23   ar
    21    23    27    1
    22    27    28   ar
    23    28    29   ar
    24    29    30   ar
    25    30    31   ar
    26    31    32   ar
    27    23    24   ar
    28    24    25   ar
    29    12    13    1
    30     9     1    1
    31    20    15    1
    32    25    21   ar
    33     8     4    1
    34    32    27   ar
    35    13     5    1
    36    11    14    1
    37    25    26    1
@<TRIPOS>MOLECULE
*****
 32 37 0 0 0
SMALL
GASTEIGER

@<TRIPOS>ATOM
      1 C         144.5074  131.4293  155.6539 C.2     1  UNL1       -0.0198
      2 C         143.3553  131.4008  154.6939 C.2     1  UNL1       -0.0042
      3 C         142.4011  132.5566  154.6330 C.2     1  UNL1        0.0006
      4 C         142.5991  133.7408  155.5320 C.2     1  UNL1        0.0111
      5 C         141.8279  135.0169  155.6956 C.2     1  UNL1       -0.0044
      6 C         142.5034  135.8341  156.7567 C.2     1  UNL1        0.0689
      7 N         143.6921  135.0630  157.2490 N.2     1  UNL1       -0.2526
      8 C         143.7513  133.7693  156.4920 C.2     1  UNL1        0.0627
      9 C         144.7054  132.6135  156.5530 C.3     1  UNL1        0.0717
     10 C         141.9488  137.1747  157.1376 C.3     1  UNL1        0.0947
     11 N         140.7186  137.6983  156.4573 N.3     1  UNL1       -0.2887
     12 C         140.0431  136.8811  155.3962 C.3     1  UNL1        0.1161
     13 C         140.5977  135.5404  155.0153 C.3     1  UNL1        0.0510
     14 H         140.9758  138.5861  156.0261 H       1  UNL1        0.1239
     15 C         142.6243  137.9918  158.1986 C.3     1  UNL1        0.0202
     16 C         143.1598  139.3537  157.8692 C.3     1  UNL1        0.0017
     17 C         143.8353  140.1709  158.9303 C.3     1  UNL1        0.0001
     18 C         143.9753  139.6262  160.3208 C.3     1  UNL1        0.0000
     19 C         143.4398  138.2643  160.6503 C.3     1  UNL1        0.0001
     20 C         142.7643  137.4471  159.5892 C.3     1  UNL1        0.0017
     21 C         138.8129  137.4046  154.7160 C.ar    1  UNL1        0.1318
     22 N         137.7991  138.3315  155.3184 N.ar    1  UNL1       -0.2282
     23 C         136.7403  138.5928  154.2886 C.ar    1  UNL1        0.1187
     24 C         137.0996  137.8273  153.0497 C.ar    1  UNL1        0.0943
     25 N         138.3806  137.0930  153.3138 N.ar    1  UNL1       -0.3385
     26 H         138.8544  136.5090  152.6785 H       1  UNL1        0.1672
     27 C         135.5338  139.4662  154.4665 C.ar    1  UNL1        0.1195
     28 C         135.1830  140.4826  153.4206 C.ar    1  UNL1        0.1195
     29 N         133.9766  141.3560  153.5984 N.ar    1  UNL1       -0.2391
     30 C         133.1209  141.2132  154.8221 C.ar    1  UNL1        0.1195
     31 C         133.4718  140.1967  155.8681 C.ar    1  UNL1        0.1195
     32 N         134.6783  139.3233  155.6902 N.ar    1  UNL1       -0.2391
@<TRIPOS>BOND
     1     1     2    2
     2     2     3    1
     3     3     4    2
     4     4     5    1
     5     5     6    2
     6     6     7    1
     7     7     8    2
     8     8     9    1
     9     6    10    1
    10    10    15    1
    11    15    16    1
    12    16    17    1
    13    17    18    1
    14    18    19    1
    15    19    20    1
    16    10    11    1
    17    11    12    1
    18    12    21    1
    19    21    22   ar
    20    22    23   ar
    21    23    27    1
    22    27    28   ar
    23    28    29   ar
    24    29    30   ar
    25    30    31   ar
    26    31    32   ar
    27    23    24   ar
    28    24    25   ar
    29    12    13    1
    30     9     1    1
    31    20    15    1
    32    25    21   ar
    33     8     4    1
    34    32    27   ar
    35    13     5    1
    36    11    14    1
    37    25    26    1
@<TRIPOS>MOLECULE
*****
 32 37 0 0 0
SMALL
GASTEIGER

@<TRIPOS>ATOM
      1 C         137.8888  138.6074  167.6452 C.2     1  UNL1       -0.0198
      2 C         137.7319  137.5834  166.5605 C.2     1  UNL1       -0.0042
      3 C         138.4809  137.7371  165.2700 C.2     1  UNL1        0.0006
      4 C         139.3867  138.9148  165.0642 C.2     1  UNL1        0.0111
      5 C         140.2469  139.3295  163.9075 C.2     1  UNL1       -0.0044
      6 C         140.9354  140.6098  164.2773 C.2     1  UNL1        0.0689
      7 N         140.5008  140.9865  165.6626 N.2     1  UNL1       -0.2526
      8 C         139.5436  139.9389  166.1490 C.2     1  UNL1        0.0627
      9 C         138.7946  139.7852  167.4395 C.3     1  UNL1        0.0717
     10 C         141.8692  141.2673  163.3048 C.3     1  UNL1        0.0947
     11 N         142.1145  140.6444  161.9624 N.3     1  UNL1       -0.2887
     12 C         141.4260  139.3641  161.5926 C.3     1  UNL1        0.1161
     13 C         140.4922  138.7066  162.5651 C.3     1  UNL1        0.0510
     14 H         143.1172  140.4688  161.8981 H       1  UNL1        0.1239
     15 C         142.5577  142.5475  163.6746 C.3     1  UNL1        0.0202
     16 C         142.1134  143.8423  163.0612 C.3     1  UNL1        0.0017
     17 C         142.8019  145.1226  163.4310 C.3     1  UNL1        0.0001
     18 C         143.9347  145.1082  164.4142 C.3     1  UNL1        0.0000
     19 C         144.3789  143.8135  165.0276 C.3     1  UNL1        0.0001
     20 C         143.6904  142.5331  164.6578 C.3     1  UNL1        0.0017
     21 C         141.6713  138.7412  160.2502 C.ar    1  UNL1        0.1318
     22 N         140.7000  138.6969  159.1080 N.ar    1  UNL1       -0.2282
     23 C         141.3594  137.9816  157.9663 C.ar    1  UNL1        0.1187
     24 C         142.7383  137.5838  158.4029 C.ar    1  UNL1        0.0943
     25 N         142.9310  138.0533  159.8144 N.ar    1  UNL1       -0.3385
     26 H         143.7419  137.9313  160.3592 H       1  UNL1        0.1672
     27 C         140.7474  137.7115  156.6238 C.ar    1  UNL1        0.1195
     28 C         141.6163  137.6467  155.4028 C.ar    1  UNL1        0.1195
     29 N         141.0043  137.3766  154.0603 N.ar    1  UNL1       -0.2391
     30 C         139.5235  137.1713  153.9386 C.ar    1  UNL1        0.1195
     31 C         138.6545  137.2360  155.1596 C.ar    1  UNL1        0.1195
     32 N         139.2665  137.5061  156.5022 N.ar    1  UNL1       -0.2391
@<TRIPOS>BOND
     1     1     2    2
     2     2     3    1
     3     3     4    2
     4     4     5    1
     5     5     6    2
     6     6     7    1
     7     7     8    2
     8     8     9    1
     9     6    10    1
    10    10    15    1
    11    15    16    1
    12    16    17    1
    13    17    18    1
    14    18    19    1
    15    19    20    1
    16    10    11    1
    17    11    12    1
    18    12    21    1
    19    21    22   ar
    20    22    23   ar
    21    23    27    1
    22    27    28   ar
    23    28    29   ar
    24    29    30   ar
    25    30    31   ar
    26    31    32   ar
    27    23    24   ar
    28    24    25   ar
    29    12    13    1
    30     9     1    1
    31    20    15    1
    32    25    21   ar
    33     8     4    1
    34    32    27   ar
    35    13     5    1
    36    11    14    1
    37    25    26    1
@<TRIPOS>MOLECULE
*****
 32 37 0 0 0
SMALL
GASTEIGER

@<TRIPOS>ATOM
      1 C         138.0867  138.2909  166.9884 C.2     1  UNL1       -0.0198
      2 C         138.0262  137.3255  165.8420 C.2     1  UNL1       -0.0042
      3 C         138.8440  137.5730  164.6091 C.2     1  UNL1        0.0006
      4 C         139.7223  138.7859  164.5227 C.2     1  UNL1        0.0111
      5 C         140.6349  139.2894  163.4440 C.2     1  UNL1       -0.0044
      6 C         141.2594  140.5661  163.9237 C.2     1  UNL1        0.0689
      7 N         140.7328  140.8515  165.2989 N.2     1  UNL1       -0.2526
      8 C         139.7828  139.7513  165.6691 C.2     1  UNL1        0.0627
      9 C         138.9650  139.5038  166.9019 C.3     1  UNL1        0.0717
     10 C         142.2270  141.3037  163.0464 C.3     1  UNL1        0.0947
     11 N         142.5700  140.7646  161.6892 N.3     1  UNL1       -0.2887
     12 C         141.9455  139.4880  161.2094 C.3     1  UNL1        0.1161
     13 C         140.9779  138.7504  162.0869 C.3     1  UNL1        0.0510
     14 H         143.5799  140.6216  161.6758 H       1  UNL1        0.1239
     15 C         142.8515  142.5803  163.5261 C.3     1  UNL1        0.0202
     16 C         142.4391  143.8900  162.9224 C.3     1  UNL1        0.0017
     17 C         143.0637  145.1667  163.4021 C.3     1  UNL1        0.0001
     18 C         144.1005  145.1336  164.4855 C.3     1  UNL1        0.0000
     19 C         144.5129  143.8238  165.0892 C.3     1  UNL1        0.0001
     20 C         143.8883  142.5471  164.6095 C.3     1  UNL1        0.0017
     21 C         142.2885  138.9489  159.8523 C.ar    1  UNL1        0.1318
     22 N         142.4563  137.5018  159.4950 N.ar    1  UNL1       -0.2282
     23 C         142.7954  137.4209  158.0361 C.ar    1  UNL1        0.1187
     24 C         142.8372  138.8180  157.4917 C.ar    1  UNL1        0.0943
     25 N         142.5239  139.7624  158.6142 N.ar    1  UNL1       -0.3385
     26 H         142.4804  140.7438  158.5497 H       1  UNL1        0.1672
     27 C         143.0484  136.1636  157.2581 C.ar    1  UNL1        0.1195
     28 C         142.9994  136.1865  155.7591 C.ar    1  UNL1        0.1195
     29 N         143.2523  134.9293  154.9812 N.ar    1  UNL1       -0.2391
     30 C         143.5542  133.6490  155.7021 C.ar    1  UNL1        0.1195
     31 C         143.6032  133.6261  157.2012 C.ar    1  UNL1        0.1195
     32 N         143.3503  134.8834  157.9792 N.ar    1  UNL1       -0.2391
@<TRIPOS>BOND
     1     1     2    2
     2     2     3    1
     3     3     4    2
     4     4     5    1
     5     5     6    2
     6     6     7    1
     7     7     8    2
     8     8     9    1
     9     6    10    1
    10    10    15    1
    11    15    16    1
    12    16    17    1
    13    17    18    1
    14    18    19    1
    15    19    20    1
    16    10    11    1
    17    11    12    1
    18    12    21    1
    19    21    22   ar
    20    22    23   ar
    21    23    27    1
    22    27    28   ar
    23    28    29   ar
    24    29    30   ar
    25    30    31   ar
    26    31    32   ar
    27    23    24   ar
    28    24    25   ar
    29    12    13    1
    30     9     1    1
    31    20    15    1
    32    25    21   ar
    33     8     4    1
    34    32    27   ar
    35    13     5    1
    36    11    14    1
    37    25    26    1
@<TRIPOS>MOLECULE
*****
 32 37 0 0 0
SMALL
GASTEIGER

@<TRIPOS>ATOM
      1 C         143.9900  130.9949  155.6238 C.2     1  UNL1       -0.0198
      2 C         144.7454  131.6910  156.7169 C.2     1  UNL1       -0.0042
      3 C         144.3890  133.0978  157.0964 C.2     1  UNL1        0.0006
      4 C         143.2773  133.8084  156.3829 C.2     1  UNL1        0.0111
      5 C         142.7045  135.1861  156.5373 C.2     1  UNL1       -0.0044
      6 C         141.5952  135.3414  155.5396 C.2     1  UNL1        0.0689
      7 N         141.4823  134.0597  154.7686 N.2     1  UNL1       -0.2526
      8 C         142.5219  133.1122  155.2899 C.2     1  UNL1        0.0627
      9 C         142.8783  131.7055  154.9103 C.3     1  UNL1        0.0717
     10 C         140.8312  136.6299  155.4621 C.3     1  UNL1        0.0947
     11 N         141.1765  137.7632  156.3823 N.3     1  UNL1       -0.2887
     12 C         142.2858  137.6078  157.3800 C.3     1  UNL1        0.1161
     13 C         143.0498  136.3192  157.4574 C.3     1  UNL1        0.0510
     14 H         140.3322  137.9800  156.9120 H       1  UNL1        0.1239
     15 C         139.7220  136.7852  154.4645 C.3     1  UNL1        0.0202
     16 C         138.3956  137.3360  154.8974 C.3     1  UNL1        0.0017
     17 C         137.2863  137.4913  153.8998 C.3     1  UNL1        0.0001
     18 C         137.5033  137.0959  152.4692 C.3     1  UNL1        0.0000
     19 C         138.8297  136.5452  152.0363 C.3     1  UNL1        0.0001
     20 C         139.9390  136.3899  153.0339 C.3     1  UNL1        0.0017
     21 C         142.6311  138.7410  158.3001 C.ar    1  UNL1        0.1318
     22 N         143.3721  138.6273  159.5993 N.ar    1  UNL1       -0.2282
     23 C         143.4950  140.0029  160.1847 C.ar    1  UNL1        0.1187
     24 C         142.8299  140.9667  159.2474 C.ar    1  UNL1        0.0943
     25 N         142.2960  140.1868  158.0826 N.ar    1  UNL1       -0.3385
     26 H         141.8108  140.5586  157.3109 H       1  UNL1        0.1672
     27 C         144.1653  140.3531  161.4801 C.ar    1  UNL1        0.1195
     28 C         144.7977  141.7018  161.6567 C.ar    1  UNL1        0.1195
     29 N         145.4680  142.0520  162.9521 N.ar    1  UNL1       -0.2391
     30 C         145.5059  141.0537  164.0709 C.ar    1  UNL1        0.1195
     31 C         144.8735  139.7049  163.8943 C.ar    1  UNL1        0.1195
     32 N         144.2032  139.3547  162.5989 N.ar    1  UNL1       -0.2391
@<TRIPOS>BOND
     1     1     2    2
     2     2     3    1
     3     3     4    2
     4     4     5    1
     5     5     6    2
     6     6     7    1
     7     7     8    2
     8     8     9    1
     9     6    10    1
    10    10    15    1
    11    15    16    1
    12    16    17    1
    13    17    18    1
    14    18    19    1
    15    19    20    1
    16    10    11    1
    17    11    12    1
    18    12    21    1
    19    21    22   ar
    20    22    23   ar
    21    23    27    1
    22    27    28   ar
    23    28    29   ar
    24    29    30   ar
    25    30    31   ar
    26    31    32   ar
    27    23    24   ar
    28    24    25   ar
    29    12    13    1
    30     9     1    1
    31    20    15    1
    32    25    21   ar
    33     8     4    1
    34    32    27   ar
    35    13     5    1
    36    11    14    1
    37    25    26    1
@<TRIPOS>MOLECULE
*****
 32 37 0 0 0
SMALL
GASTEIGER

@<TRIPOS>ATOM
      1 C         135.7938  141.2704  154.1879 C.2     1  UNL1       -0.0198
      2 C         136.2912  140.6056  155.4371 C.2     1  UNL1       -0.0042
      3 C         137.2224  141.3384  156.3568 C.2     1  UNL1        0.0006
      4 C         137.6562  142.7359  156.0274 C.2     1  UNL1        0.0111
      5 C         138.5594  143.7003  156.7375 C.2     1  UNL1       -0.0044
      6 C         138.6202  144.9611  155.9272 C.2     1  UNL1        0.0689
      7 N         137.7546  144.7760  154.7162 N.2     1  UNL1       -0.2526
      8 C         137.1588  143.4008  154.7782 C.2     1  UNL1        0.0627
      9 C         136.2276  142.6680  153.8585 C.3     1  UNL1        0.0717
     10 C         139.4559  146.1148  156.3967 C.3     1  UNL1        0.0947
     11 N         140.2310  146.0077  157.6765 N.3     1  UNL1       -0.2887
     12 C         140.1702  144.7469  158.4869 C.3     1  UNL1        0.1161
     13 C         139.3344  143.5931  158.0173 C.3     1  UNL1        0.0510
     14 H         139.9065  146.7623  158.2813 H       1  UNL1        0.1239
     15 C         139.5167  147.3756  155.5864 C.3     1  UNL1        0.0202
     16 C         140.2825  147.4022  154.2969 C.3     1  UNL1        0.0017
     17 C         140.3433  148.6631  153.4866 C.3     1  UNL1        0.0001
     18 C         139.6383  149.8973  153.9658 C.3     1  UNL1        0.0000
     19 C         138.8726  149.8707  155.2553 C.3     1  UNL1        0.0001
     20 C         138.8118  148.6098  156.0656 C.3     1  UNL1        0.0017
     21 C         140.9452  144.6397  159.7667 C.ar    1  UNL1        0.1318
     22 N         141.9694  143.5934  160.0923 N.ar    1  UNL1       -0.2282
     23 C         142.4892  143.8672  161.4724 C.ar    1  UNL1        0.1187
     24 C         141.7862  145.0827  161.9999 C.ar    1  UNL1        0.0943
     25 N         140.8319  145.5602  160.9457 N.ar    1  UNL1       -0.3385
     26 H         140.2359  146.3407  161.0153 H       1  UNL1        0.1672
     27 C         143.5294  143.0660  162.1978 C.ar    1  UNL1        0.1195
     28 C         144.1920  141.9054  161.5167 C.ar    1  UNL1        0.1195
     29 N         145.2321  141.1043  162.2420 N.ar    1  UNL1       -0.2391
     30 C         145.6098  141.4636  163.6485 C.ar    1  UNL1        0.1195
     31 C         144.9472  142.6243  164.3297 C.ar    1  UNL1        0.1195
     32 N         143.9070  143.4255  163.6043 N.ar    1  UNL1       -0.2391
@<TRIPOS>BOND
     1     1     2    2
     2     2     3    1
     3     3     4    2
     4     4     5    1
     5     5     6    2
     6     6     7    1
     7     7     8    2
     8     8     9    1
     9     6    10    1
    10    10    15    1
    11    15    16    1
    12    16    17    1
    13    17    18    1
    14    18    19    1
    15    19    20    1
    16    10    11    1
    17    11    12    1
    18    12    21    1
    19    21    22   ar
    20    22    23   ar
    21    23    27    1
    22    27    28   ar
    23    28    29   ar
    24    29    30   ar
    25    30    31   ar
    26    31    32   ar
    27    23    24   ar
    28    24    25   ar
    29    12    13    1
    30     9     1    1
    31    20    15    1
    32    25    21   ar
    33     8     4    1
    34    32    27   ar
    35    13     5    1
    36    11    14    1
    37    25    26    1
@<TRIPOS>MOLECULE
*****
 32 37 0 0 0
SMALL
GASTEIGER

@<TRIPOS>ATOM
      1 C         137.6129  142.1395  164.0404 C.2     1  UNL1       -0.0198
      2 C         137.8340  140.6700  163.8360 C.2     1  UNL1       -0.0042
      3 C         138.2095  140.1495  162.4803 C.2     1  UNL1        0.0006
      4 C         138.3639  141.0984  161.3289 C.2     1  UNL1        0.0111
      5 C         138.7231  140.8796  159.8891 C.2     1  UNL1       -0.0044
      6 C         138.7240  142.2139  159.2036 C.2     1  UNL1        0.0689
      7 N         138.3654  143.2573  160.2198 N.2     1  UNL1       -0.2526
      8 C         138.1428  142.5679  161.5333 C.2     1  UNL1        0.0627
      9 C         137.7673  143.0884  162.8891 C.3     1  UNL1        0.0717
     10 C         139.0514  142.3063  157.7427 C.3     1  UNL1        0.0947
     11 N         139.3778  141.0644  156.9672 N.3     1  UNL1       -0.2887
     12 C         139.3768  139.7302  157.6527 C.3     1  UNL1        0.1161
     13 C         139.0495  139.6378  159.1137 C.3     1  UNL1        0.0510
     14 H         140.3123  141.1960  156.5803 H       1  UNL1        0.1239
     15 C         139.0523  143.6404  157.0573 C.3     1  UNL1        0.0202
     16 C         139.9865  144.7197  157.5182 C.3     1  UNL1        0.0017
     17 C         139.9874  146.0540  156.8327 C.3     1  UNL1        0.0001
     18 C         139.0542  146.3089  155.6863 C.3     1  UNL1        0.0000
     19 C         138.1201  145.2295  155.2255 C.3     1  UNL1        0.0001
     20 C         138.1191  143.8953  155.9109 C.3     1  UNL1        0.0017
     21 C         139.7032  138.4883  156.8773 C.ar    1  UNL1        0.1318
     22 N         140.8849  137.5925  157.1036 N.ar    1  UNL1       -0.2282
     23 C         140.8172  136.4748  156.1056 C.ar    1  UNL1        0.1187
     24 C         139.5937  136.6798  155.2623 C.ar    1  UNL1        0.0943
     25 N         138.9053  137.9242  155.7393 N.ar    1  UNL1       -0.3385
     26 H         138.0753  138.3041  155.3702 H       1  UNL1        0.1672
     27 C         141.8004  135.3497  155.9739 C.ar    1  UNL1        0.1195
     28 C         141.6670  134.3647  154.8504 C.ar    1  UNL1        0.1195
     29 N         142.6501  133.2396  154.7187 N.ar    1  UNL1       -0.2391
     30 C         143.7668  133.0993  155.7104 C.ar    1  UNL1        0.1195
     31 C         143.9002  134.0843  156.8339 C.ar    1  UNL1        0.1195
     32 N         142.9170  135.2094  156.9656 N.ar    1  UNL1       -0.2391
@<TRIPOS>BOND
     1     1     2    2
     2     2     3    1
     3     3     4    2
     4     4     5    1
     5     5     6    2
     6     6     7    1
     7     7     8    2
     8     8     9    1
     9     6    10    1
    10    10    15    1
    11    15    16    1
    12    16    17    1
    13    17    18    1
    14    18    19    1
    15    19    20    1
    16    10    11    1
    17    11    12    1
    18    12    21    1
    19    21    22   ar
    20    22    23   ar
    21    23    27    1
    22    27    28   ar
    23    28    29   ar
    24    29    30   ar
    25    30    31   ar
    26    31    32   ar
    27    23    24   ar
    28    24    25   ar
    29    12    13    1
    30     9     1    1
    31    20    15    1
    32    25    21   ar
    33     8     4    1
    34    32    27   ar
    35    13     5    1
    36    11    14    1
    37    25    26    1
@<TRIPOS>MOLECULE
*****
 32 37 0 0 0
SMALL
GASTEIGER

@<TRIPOS>ATOM
      1 C         144.7625  142.8575  164.3457 C.2     1  UNL1       -0.0198
      2 C         145.2056  141.4557  164.0483 C.2     1  UNL1       -0.0042
      3 C         144.8950  140.8373  162.7174 C.2     1  UNL1        0.0006
      4 C         144.1412  141.6209  161.6840 C.2     1  UNL1        0.0111
      5 C         143.6937  141.2784  160.2939 C.2     1  UNL1       -0.0044
      6 C         142.9740  142.4686  159.7322 C.2     1  UNL1        0.0689
      7 N         142.9768  143.5467  160.7751 N.2     1  UNL1       -0.2526
      8 C         143.6982  143.0227  161.9815 C.2     1  UNL1        0.0627
      9 C         144.0088  143.6410  163.3123 C.3     1  UNL1        0.0717
     10 C         142.4092  142.4170  158.3436 C.3     1  UNL1        0.0947
     11 N         142.5640  141.1751  157.5166 N.3     1  UNL1       -0.2887
     12 C         143.2837  139.9849  158.0783 C.3     1  UNL1        0.1161
     13 C         143.8485  140.0366  159.4670 C.3     1  UNL1        0.0510
     14 H         143.0610  141.4463  156.6682 H       1  UNL1        0.1239
     15 C         141.6895  143.6071  157.7819 C.3     1  UNL1        0.0202
     16 C         142.4152  144.9080  157.6057 C.3     1  UNL1        0.0017
     17 C         141.6956  146.0982  157.0440 C.3     1  UNL1        0.0001
     18 C         140.2502  145.9875  156.6585 C.3     1  UNL1        0.0000
     19 C         139.5245  144.6867  156.8347 C.3     1  UNL1        0.0001
     20 C         140.2442  143.4964  157.3964 C.3     1  UNL1        0.0017
     21 C         143.4385  138.7430  157.2514 C.ar    1  UNL1        0.1318
     22 N         142.9452  137.3740  157.6156 N.ar    1  UNL1       -0.2282
     23 C         143.3157  136.4371  156.5043 C.ar    1  UNL1        0.1187
     24 C         144.0380  137.2269  155.4534 C.ar    1  UNL1        0.0943
     25 N         144.1139  138.6520  155.9151 N.ar    1  UNL1       -0.3385
     26 H         144.5333  139.3970  155.4268 H       1  UNL1        0.1672
     27 C         143.0164  134.9681  156.4531 C.ar    1  UNL1        0.1195
     28 C         143.8044  134.0122  157.2989 C.ar    1  UNL1        0.1195
     29 N         143.5052  132.5434  157.2476 N.ar    1  UNL1       -0.2391
     30 C         142.4180  132.0302  156.3506 C.ar    1  UNL1        0.1195
     31 C         141.6299  132.9861  155.5048 C.ar    1  UNL1        0.1195
     32 N         141.9292  134.4550  155.5560 N.ar    1  UNL1       -0.2391
@<TRIPOS>BOND
     1     1     2    2
     2     2     3    1
     3     3     4    2
     4     4     5    1
     5     5     6    2
     6     6     7    1
     7     7     8    2
     8     8     9    1
     9     6    10    1
    10    10    15    1
    11    15    16    1
    12    16    17    1
    13    17    18    1
    14    18    19    1
    15    19    20    1
    16    10    11    1
    17    11    12    1
    18    12    21    1
    19    21    22   ar
    20    22    23   ar
    21    23    27    1
    22    27    28   ar
    23    28    29   ar
    24    29    30   ar
    25    30    31   ar
    26    31    32   ar
    27    23    24   ar
    28    24    25   ar
    29    12    13    1
    30     9     1    1
    31    20    15    1
    32    25    21   ar
    33     8     4    1
    34    32    27   ar
    35    13     5    1
    36    11    14    1
    37    25    26    1
