@<TRIPOS>MOLECULE
*****
 29 33 0 0 0
SMALL
GASTEIGER

@<TRIPOS>ATOM
      1 C         138.9302  138.6177  165.9490 C.ar    1  UNL1        0.1052
      2 C         137.7503  137.9559  166.5970 C.ar    1  UNL1        0.1199
      3 N         137.3641  138.3185  168.0005 N.ar    1  UNL1       -0.2194
      4 C         138.1578  139.3430  168.7557 C.ar    1  UNL1        0.2212
      5 N         138.0170  139.9001  170.1412 N.ar    1  UNL1       -0.1076
      6 N         139.1098  140.9063  170.3496 N.ar    1  UNL1       -0.0607
      7 N         139.9261  140.9710  169.0927 N.ar    1  UNL1       -0.2090
      8 C         139.3377  140.0048  168.1077 C.ar    1  UNL1        0.1994
      9 N         139.7239  139.6422  166.7044 N.ar    1  UNL1       -0.2225
     10 N         139.3717  138.1469  162.1217 N.ar    1  UNL1       -0.2468
     11 C         138.6716  138.7699  163.2929 C.ar    1  UNL1        0.0983
     12 C         139.3163  138.2550  164.5457 C.ar    1  UNL1        0.0588
     13 C         140.4148  137.3139  164.1488 C.ar    1  UNL1        0.1232
     14 N         140.4491  137.2470  162.6506 N.ar    1  UNL1       -0.1675
     15 C         139.0509  138.3824  160.6755 C.3     1  UNL1        0.1591
     16 O         136.7320  139.5474  160.5495 O.3     1  UNL1       -0.3799
     17 C         138.2069  139.5563  160.2760 C.3     1  UNL1        0.1635
     18 H         136.3391  140.3750  160.2310 H       1  UNL1        0.2105
     19 C         141.1209  141.8479  168.8615 C.3     1  UNL1        0.1572
     20 C         141.4107  142.3734  167.4868 C.ar    1  UNL1        0.0023
     21 C         142.7614  142.1581  166.8709 C.ar    1  UNL1       -0.0008
     22 C         143.0513  142.6836  165.4962 C.ar    1  UNL1        0.0188
     23 C         141.9905  143.4244  164.7373 C.ar    1  UNL1        0.0813
     24 N         142.2804  143.9499  163.3627 N.ar    1  UNL1       -0.2438
     25 C         141.2196  144.6907  162.6038 C.ar    1  UNL1        0.0988
     26 C         139.8689  144.9061  163.2197 C.ar    1  UNL1        0.0207
     27 C         139.5790  144.3806  164.5944 C.ar    1  UNL1        0.0031
     28 C         140.6398  143.6398  165.3532 C.ar    1  UNL1        0.0174
     29 C         140.3500  143.1143  166.7279 C.ar    1  UNL1       -0.0008
@<TRIPOS>BOND
     1    16    17    1
     2    17    15    1
     3    15    10    1
     4    10    11   ar
     5    11    12   ar
     6    12     1    1
     7     1     2   ar
     8     2     3   ar
     9     3     4   ar
    10     4     5   ar
    11     5     6   ar
    12     6     7   ar
    13     7    19    1
    14    19    20    1
    15    20    21   ar
    16    21    22   ar
    17    22    23   ar
    18    23    24   ar
    19    24    25   ar
    20    25    26   ar
    21    26    27   ar
    22    27    28   ar
    23    28    29   ar
    24     7     8   ar
    25     8     9   ar
    26    12    13   ar
    27    13    14   ar
    28    14    10   ar
    29     9     1   ar
    30     8     4   ar
    31    29    20   ar
    32    28    23   ar
    33    16    18    1
@<TRIPOS>MOLECULE
*****
 29 33 0 0 0
SMALL
GASTEIGER

@<TRIPOS>ATOM
      1 C         140.8286  142.4163  166.6759 C.ar    1  UNL1        0.1052
      2 C         140.4987  142.8349  168.0780 C.ar    1  UNL1        0.1199
      3 N         140.9727  142.0104  169.2381 N.ar    1  UNL1       -0.2194
      4 C         141.7767  140.7675  168.9959 C.ar    1  UNL1        0.2212
      5 N         142.3765  139.7617  169.9332 N.ar    1  UNL1       -0.1076
      6 N         143.0772  138.7214  169.1104 N.ar    1  UNL1       -0.0607
      7 N         142.9104  139.0844  167.6645 N.ar    1  UNL1       -0.2090
      8 C         142.1066  140.3489  167.5938 C.ar    1  UNL1        0.1994
      9 N         141.6326  141.1733  166.4338 N.ar    1  UNL1       -0.2225
     10 N         140.1301  144.1761  163.2876 N.ar    1  UNL1       -0.2468
     11 C         140.8931  143.1861  164.1170 C.ar    1  UNL1        0.0983
     12 C         140.3545  143.2407  165.5159 C.ar    1  UNL1        0.0588
     13 C         139.2587  144.2644  165.5512 C.ar    1  UNL1        0.1232
     14 N         139.1200  144.8425  164.1740 N.ar    1  UNL1       -0.1675
     15 C         140.3403  144.4514  161.8282 C.3     1  UNL1        0.1591
     16 O         140.0679  147.0108  162.1817 O.3     1  UNL1       -0.3799
     17 C         140.0583  145.8165  161.2742 C.3     1  UNL1        0.1635
     18 H         139.8680  147.8089  161.6679 H       1  UNL1        0.2105
     19 C         143.4522  138.3175  166.4948 C.3     1  UNL1        0.1572
     20 C         142.7634  138.3931  165.1644 C.ar    1  UNL1        0.0023
     21 C         143.5195  138.8534  163.9535 C.ar    1  UNL1       -0.0008
     22 C         142.8308  138.9290  162.6231 C.ar    1  UNL1        0.0188
     23 C         141.3858  138.5444  162.5037 C.ar    1  UNL1        0.0813
     24 N         140.6971  138.6200  161.1733 N.ar    1  UNL1       -0.2438
     25 C         139.2522  138.2354  161.0539 C.ar    1  UNL1        0.0988
     26 C         138.4960  137.7751  162.2649 C.ar    1  UNL1        0.0207
     27 C         139.1848  137.6994  163.5952 C.ar    1  UNL1        0.0031
     28 C         140.6297  138.0841  163.7146 C.ar    1  UNL1        0.0174
     29 C         141.3185  138.0085  165.0450 C.ar    1  UNL1       -0.0008
@<TRIPOS>BOND
     1    16    17    1
     2    17    15    1
     3    15    10    1
     4    10    11   ar
     5    11    12   ar
     6    12     1    1
     7     1     2   ar
     8     2     3   ar
     9     3     4   ar
    10     4     5   ar
    11     5     6   ar
    12     6     7   ar
    13     7    19    1
    14    19    20    1
    15    20    21   ar
    16    21    22   ar
    17    22    23   ar
    18    23    24   ar
    19    24    25   ar
    20    25    26   ar
    21    26    27   ar
    22    27    28   ar
    23    28    29   ar
    24     7     8   ar
    25     8     9   ar
    26    12    13   ar
    27    13    14   ar
    28    14    10   ar
    29     9     1   ar
    30     8     4   ar
    31    29    20   ar
    32    28    23   ar
    33    16    18    1
@<TRIPOS>MOLECULE
*****
 29 33 0 0 0
SMALL
GASTEIGER

@<TRIPOS>ATOM
      1 C         142.1285  141.6290  167.2275 C.ar    1  UNL1        0.1052
      2 C         142.3072  142.2536  168.5795 C.ar    1  UNL1        0.1199
      3 N         141.3316  141.9541  169.6790 N.ar    1  UNL1       -0.2194
      4 C         140.1775  141.0302  169.4263 C.ar    1  UNL1        0.2212
      5 N         139.0632  140.5513  170.3090 N.ar    1  UNL1       -0.1076
      6 N         138.1958  139.6308  169.5026 N.ar    1  UNL1       -0.0607
      7 N         138.7740  139.5407  168.1214 N.ar    1  UNL1       -0.2090
      8 C         139.9987  140.4056  168.0743 C.ar    1  UNL1        0.1994
      9 N         140.9742  140.7050  166.9749 N.ar    1  UNL1       -0.2225
     10 N         144.3956  141.7636  164.0799 N.ar    1  UNL1       -0.2468
     11 C         143.3383  141.0921  164.9052 C.ar    1  UNL1        0.0983
     12 C         143.1040  141.9285  166.1282 C.ar    1  UNL1        0.0588
     13 C         144.0166  143.1169  166.0587 C.ar    1  UNL1        0.1232
     14 N         144.8149  143.0150  164.7928 N.ar    1  UNL1       -0.1675
     15 C         144.9384  141.2703  162.7715 C.3     1  UNL1        0.1591
     16 O         144.9076  143.6452  161.7185 O.3     1  UNL1       -0.3799
     17 C         144.8935  142.1537  161.5600 C.3     1  UNL1        0.1635
     18 H         144.8740  144.0636  160.8440 H       1  UNL1        0.2105
     19 C         138.2241  138.7285  166.9866 C.3     1  UNL1        0.1572
     20 C         138.3653  139.2186  165.5759 C.ar    1  UNL1        0.0023
     21 C         138.8992  138.3035  164.5140 C.ar    1  UNL1       -0.0008
     22 C         139.0405  138.7936  163.1034 C.ar    1  UNL1        0.0188
     23 C         138.6479  140.1987  162.7546 C.ar    1  UNL1        0.0813
     24 N         138.7892  140.6888  161.3440 N.ar    1  UNL1       -0.2438
     25 C         138.3966  142.0938  160.9954 C.ar    1  UNL1        0.0988
     26 C         137.8627  143.0089  162.0573 C.ar    1  UNL1        0.0207
     27 C         137.7215  142.5188  163.4679 C.ar    1  UNL1        0.0031
     28 C         138.1140  141.1138  163.8166 C.ar    1  UNL1        0.0174
     29 C         137.9728  140.6236  165.2273 C.ar    1  UNL1       -0.0008
@<TRIPOS>BOND
     1    16    17    1
     2    17    15    1
     3    15    10    1
     4    10    11   ar
     5    11    12   ar
     6    12     1    1
     7     1     2   ar
     8     2     3   ar
     9     3     4   ar
    10     4     5   ar
    11     5     6   ar
    12     6     7   ar
    13     7    19    1
    14    19    20    1
    15    20    21   ar
    16    21    22   ar
    17    22    23   ar
    18    23    24   ar
    19    24    25   ar
    20    25    26   ar
    21    26    27   ar
    22    27    28   ar
    23    28    29   ar
    24     7     8   ar
    25     8     9   ar
    26    12    13   ar
    27    13    14   ar
    28    14    10   ar
    29     9     1   ar
    30     8     4   ar
    31    29    20   ar
    32    28    23   ar
    33    16    18    1
@<TRIPOS>MOLECULE
*****
 29 33 0 0 0
SMALL
GASTEIGER

@<TRIPOS>ATOM
      1 C         139.0754  139.1752  165.4712 C.ar    1  UNL1        0.1052
      2 C         139.0303  137.7398  165.0383 C.ar    1  UNL1        0.1199
      3 N         138.6367  137.3922  163.6331 N.ar    1  UNL1       -0.2194
      4 C         138.2883  138.4800  162.6610 C.ar    1  UNL1        0.2212
      5 N         137.8670  138.4430  161.2219 N.ar    1  UNL1       -0.1076
      6 N         137.6517  139.8555  160.7653 N.ar    1  UNL1       -0.0607
      7 N         137.9400  140.7656  161.9224 N.ar    1  UNL1       -0.2090
      8 C         138.3334  139.9155  163.0939 C.ar    1  UNL1        0.1994
      9 N         138.7269  140.2631  164.4990 N.ar    1  UNL1       -0.2225
     10 N         140.7791  140.1783  168.8113 N.ar    1  UNL1       -0.2468
     11 C         140.8401  139.9225  167.3346 C.ar    1  UNL1        0.0983
     12 C         139.4689  139.5227  166.8763 C.ar    1  UNL1        0.0588
     13 C         138.5603  139.5315  168.0698 C.ar    1  UNL1        0.1232
     14 N         139.3700  139.9367  169.2658 N.ar    1  UNL1       -0.1675
     15 C         141.9256  140.6015  169.6810 C.3     1  UNL1        0.1591
     16 O         140.6472  140.5224  171.9414 O.3     1  UNL1       -0.3799
     17 C         141.6633  141.1666  171.0455 C.3     1  UNL1        0.1635
     18 H         140.6011  141.0081  172.7797 H       1  UNL1        0.2105
     19 C         137.8505  142.2629  161.9100 C.3     1  UNL1        0.1572
     20 C         138.9971  143.0870  162.4163 C.ar    1  UNL1        0.0023
     21 C         138.7415  144.2388  163.3425 C.ar    1  UNL1       -0.0008
     22 C         139.8880  145.0629  163.8488 C.ar    1  UNL1        0.0188
     23 C         141.2903  144.7351  163.4288 C.ar    1  UNL1        0.0813
     24 N         142.4368  145.5591  163.9351 N.ar    1  UNL1       -0.2438
     25 C         143.8390  145.2313  163.5151 C.ar    1  UNL1        0.0988
     26 C         144.0946  144.0795  162.5889 C.ar    1  UNL1        0.0207
     27 C         142.9481  143.2554  162.0826 C.ar    1  UNL1        0.0031
     28 C         141.5459  143.5832  162.5026 C.ar    1  UNL1        0.0174
     29 C         140.3993  142.7592  161.9963 C.ar    1  UNL1       -0.0008
@<TRIPOS>BOND
     1    16    17    1
     2    17    15    1
     3    15    10    1
     4    10    11   ar
     5    11    12   ar
     6    12     1    1
     7     1     2   ar
     8     2     3   ar
     9     3     4   ar
    10     4     5   ar
    11     5     6   ar
    12     6     7   ar
    13     7    19    1
    14    19    20    1
    15    20    21   ar
    16    21    22   ar
    17    22    23   ar
    18    23    24   ar
    19    24    25   ar
    20    25    26   ar
    21    26    27   ar
    22    27    28   ar
    23    28    29   ar
    24     7     8   ar
    25     8     9   ar
    26    12    13   ar
    27    13    14   ar
    28    14    10   ar
    29     9     1   ar
    30     8     4   ar
    31    29    20   ar
    32    28    23   ar
    33    16    18    1
@<TRIPOS>MOLECULE
*****
 29 33 0 0 0
SMALL
GASTEIGER

@<TRIPOS>ATOM
      1 C         142.1897  142.4429  165.9658 C.ar    1  UNL1        0.1052
      2 C         143.2527  142.6048  167.0117 C.ar    1  UNL1        0.1199
      3 N         143.1121  141.9157  168.3368 N.ar    1  UNL1       -0.2194
      4 C         141.9087  141.0650  168.6157 C.ar    1  UNL1        0.2212
      5 N         141.4992  140.2695  169.8196 N.ar    1  UNL1       -0.1076
      6 N         140.1831  139.6160  169.5178 N.ar    1  UNL1       -0.0607
      7 N         139.7793  140.0077  168.1272 N.ar    1  UNL1       -0.2090
      8 C         140.8458  140.9032  167.5697 C.ar    1  UNL1        0.1994
      9 N         140.9863  141.5921  166.2448 N.ar    1  UNL1       -0.2225
     10 N         141.8223  144.0618  162.4572 N.ar    1  UNL1       -0.2468
     11 C         141.2410  143.3259  163.6280 C.ar    1  UNL1        0.0983
     12 C         142.3303  143.1320  164.6408 C.ar    1  UNL1        0.0588
     13 C         143.5848  143.7480  164.0961 C.ar    1  UNL1        0.1232
     14 N         143.2709  144.3227  162.7466 N.ar    1  UNL1       -0.1675
     15 C         141.0846  144.4658  161.2153 C.3     1  UNL1        0.1591
     16 O         140.3257  146.6849  162.3332 O.3     1  UNL1       -0.3799
     17 C         140.2007  145.6776  161.2288 C.3     1  UNL1        0.1635
     18 H         139.6863  147.4005  162.1920 H       1  UNL1        0.2105
     19 C         138.5287  139.5791  167.4186 C.3     1  UNL1        0.1572
     20 C         138.5663  139.2707  165.9510 C.ar    1  UNL1        0.0023
     21 C         139.0423  137.9290  165.4786 C.ar    1  UNL1       -0.0008
     22 C         139.0799  137.6206  164.0111 C.ar    1  UNL1        0.0188
     23 C         138.6416  138.6540  163.0160 C.ar    1  UNL1        0.0813
     24 N         138.6793  138.3457  161.5486 N.ar    1  UNL1       -0.2438
     25 C         138.2410  139.3790  160.5536 C.ar    1  UNL1        0.0988
     26 C         137.7650  140.7207  161.0261 C.ar    1  UNL1        0.0207
     27 C         137.7274  141.0291  162.4935 C.ar    1  UNL1        0.0031
     28 C         138.1657  139.9957  163.4885 C.ar    1  UNL1        0.0174
     29 C         138.1280  140.3041  164.9561 C.ar    1  UNL1       -0.0008
@<TRIPOS>BOND
     1    16    17    1
     2    17    15    1
     3    15    10    1
     4    10    11   ar
     5    11    12   ar
     6    12     1    1
     7     1     2   ar
     8     2     3   ar
     9     3     4   ar
    10     4     5   ar
    11     5     6   ar
    12     6     7   ar
    13     7    19    1
    14    19    20    1
    15    20    21   ar
    16    21    22   ar
    17    22    23   ar
    18    23    24   ar
    19    24    25   ar
    20    25    26   ar
    21    26    27   ar
    22    27    28   ar
    23    28    29   ar
    24     7     8   ar
    25     8     9   ar
    26    12    13   ar
    27    13    14   ar
    28    14    10   ar
    29     9     1   ar
    30     8     4   ar
    31    29    20   ar
    32    28    23   ar
    33    16    18    1
@<TRIPOS>MOLECULE
*****
 29 33 0 0 0
SMALL
GASTEIGER

@<TRIPOS>ATOM
      1 C         139.2761  138.6728  165.1444 C.ar    1  UNL1        0.1052
      2 C         138.1827  137.8631  165.7759 C.ar    1  UNL1        0.1199
      3 N         137.7783  138.1273  167.1960 N.ar    1  UNL1       -0.2194
      4 C         138.4673  139.2012  167.9845 C.ar    1  UNL1        0.2212
      5 N         138.2858  139.6857  169.3925 N.ar    1  UNL1       -0.1076
      6 N         139.2670  140.7950  169.6312 N.ar    1  UNL1       -0.0607
      7 N         140.0550  140.9959  168.3707 N.ar    1  UNL1       -0.2090
      8 C         139.5608  140.0109  167.3531 C.ar    1  UNL1        0.1994
      9 N         139.9652  139.7467  165.9330 N.ar    1  UNL1       -0.2225
     10 N         140.9962  138.2438  161.6915 N.ar    1  UNL1       -0.2468
     11 C         141.0401  138.6446  163.1363 C.ar    1  UNL1        0.0983
     12 C         139.6805  138.4086  163.7243 C.ar    1  UNL1        0.0588
     13 C         138.7962  137.8620  162.6430 C.ar    1  UNL1        0.1232
     14 N         139.6094  137.7601  161.3865 N.ar    1  UNL1       -0.1675
     15 C         142.1385  138.3143  160.7218 C.3     1  UNL1        0.1591
     16 O         144.5721  138.6918  161.5495 O.3     1  UNL1       -0.3799
     17 C         143.4809  137.7644  161.1031 C.3     1  UNL1        0.1635
     18 H         145.3683  138.1781  161.7570 H       1  UNL1        0.2105
     19 C         141.1457  142.0047  168.1641 C.3     1  UNL1        0.1572
     20 C         141.3444  142.6287  166.8146 C.ar    1  UNL1        0.0023
     21 C         142.6775  142.5340  166.1335 C.ar    1  UNL1       -0.0008
     22 C         142.8763  143.1579  164.7840 C.ar    1  UNL1        0.0188
     23 C         141.7420  143.8767  164.1156 C.ar    1  UNL1        0.0813
     24 N         141.9407  144.5006  162.7661 N.ar    1  UNL1       -0.2438
     25 C         140.8064  145.2193  162.0977 C.ar    1  UNL1        0.0988
     26 C         139.4733  145.3141  162.7788 C.ar    1  UNL1        0.0207
     27 C         139.2746  144.6901  164.1283 C.ar    1  UNL1        0.0031
     28 C         140.4089  143.9714  164.7967 C.ar    1  UNL1        0.0174
     29 C         140.2101  143.3474  166.1462 C.ar    1  UNL1       -0.0008
@<TRIPOS>BOND
     1    16    17    1
     2    17    15    1
     3    15    10    1
     4    10    11   ar
     5    11    12   ar
     6    12     1    1
     7     1     2   ar
     8     2     3   ar
     9     3     4   ar
    10     4     5   ar
    11     5     6   ar
    12     6     7   ar
    13     7    19    1
    14    19    20    1
    15    20    21   ar
    16    21    22   ar
    17    22    23   ar
    18    23    24   ar
    19    24    25   ar
    20    25    26   ar
    21    26    27   ar
    22    27    28   ar
    23    28    29   ar
    24     7     8   ar
    25     8     9   ar
    26    12    13   ar
    27    13    14   ar
    28    14    10   ar
    29     9     1   ar
    30     8     4   ar
    31    29    20   ar
    32    28    23   ar
    33    16    18    1
@<TRIPOS>MOLECULE
*****
 29 33 0 0 0
SMALL
GASTEIGER

@<TRIPOS>ATOM
      1 C         142.3376  141.6782  167.2102 C.ar    1  UNL1        0.1052
      2 C         142.7450  142.1496  168.5747 C.ar    1  UNL1        0.1199
      3 N         141.8964  141.8193  169.7667 N.ar    1  UNL1       -0.2194
      4 C         140.6405  141.0176  169.5942 C.ar    1  UNL1        0.2212
      5 N         139.6108  140.5417  170.5756 N.ar    1  UNL1       -0.1076
      6 N         138.5669  139.7761  169.8177 N.ar    1  UNL1       -0.0607
      7 N         138.9516  139.7789  168.3678 N.ar    1  UNL1       -0.2090
      8 C         140.2330  140.5462  168.2297 C.ar    1  UNL1        0.1994
      9 N         141.0816  140.8765  167.0377 N.ar    1  UNL1       -0.2225
     10 N         144.4235  141.8110  163.9397 N.ar    1  UNL1       -0.2468
     11 C         143.5741  141.0606  164.9223 C.ar    1  UNL1        0.0983
     12 C         143.1862  142.0085  166.0183 C.ar    1  UNL1        0.0588
     13 C         143.7958  143.3446  165.7131 C.ar    1  UNL1        0.1232
     14 N         144.5606  143.2226  164.4284 N.ar    1  UNL1       -0.1675
     15 C         145.0295  141.2485  162.6881 C.3     1  UNL1        0.1591
     16 O         144.6945  138.6980  162.3239 O.3     1  UNL1       -0.3799
     17 C         144.3554  140.1161  161.9718 C.3     1  UNL1        0.1635
     18 H         144.1737  138.0943  161.7715 H       1  UNL1        0.2105
     19 C         138.1886  139.1286  167.2520 C.3     1  UNL1        0.1572
     20 C         138.6552  139.2831  165.8347 C.ar    1  UNL1        0.0023
     21 C         138.1547  140.4249  165.0006 C.ar    1  UNL1       -0.0008
     22 C         138.6212  140.5794  163.5834 C.ar    1  UNL1        0.0188
     23 C         139.5882  139.5920  163.0003 C.ar    1  UNL1        0.0813
     24 N         140.0547  139.7465  161.5831 N.ar    1  UNL1       -0.2438
     25 C         141.0217  138.7591  161.0000 C.ar    1  UNL1        0.0988
     26 C         141.5222  137.6173  161.8341 C.ar    1  UNL1        0.0207
     27 C         141.0557  137.4628  163.2513 C.ar    1  UNL1        0.0031
     28 C         140.0887  138.4502  163.8344 C.ar    1  UNL1        0.0174
     29 C         139.6222  138.2957  165.2516 C.ar    1  UNL1       -0.0008
@<TRIPOS>BOND
     1    16    17    1
     2    17    15    1
     3    15    10    1
     4    10    11   ar
     5    11    12   ar
     6    12     1    1
     7     1     2   ar
     8     2     3   ar
     9     3     4   ar
    10     4     5   ar
    11     5     6   ar
    12     6     7   ar
    13     7    19    1
    14    19    20    1
    15    20    21   ar
    16    21    22   ar
    17    22    23   ar
    18    23    24   ar
    19    24    25   ar
    20    25    26   ar
    21    26    27   ar
    22    27    28   ar
    23    28    29   ar
    24     7     8   ar
    25     8     9   ar
    26    12    13   ar
    27    13    14   ar
    28    14    10   ar
    29     9     1   ar
    30     8     4   ar
    31    29    20   ar
    32    28    23   ar
    33    16    18    1
@<TRIPOS>MOLECULE
*****
 29 33 0 0 0
SMALL
GASTEIGER

@<TRIPOS>ATOM
      1 C         139.1517  138.7053  165.4726 C.ar    1  UNL1        0.1052
      2 C         138.0326  137.9062  166.0719 C.ar    1  UNL1        0.1199
      3 N         137.5992  138.1647  167.4845 N.ar    1  UNL1       -0.2194
      4 C         138.2851  139.2220  168.2978 C.ar    1  UNL1        0.2212
      5 N         138.0779  139.6976  169.7052 N.ar    1  UNL1       -0.1076
      6 N         139.0689  140.7906  169.9759 N.ar    1  UNL1       -0.0607
      7 N         139.8887  140.9905  168.7356 N.ar    1  UNL1       -0.2090
      8 C         139.4042  140.0211  167.6985 C.ar    1  UNL1        0.1994
      9 N         139.8375  139.7627  166.2859 N.ar    1  UNL1       -0.2225
     10 N         140.8929  138.4165  162.0157 N.ar    1  UNL1       -0.2468
     11 C         140.8769  138.8892  163.4392 C.ar    1  UNL1        0.0983
     12 C         139.5850  138.4468  164.0600 C.ar    1  UNL1        0.0588
     13 C         138.8025  137.7007  163.0203 C.ar    1  UNL1        0.1232
     14 N         139.6108  137.6819  161.7568 N.ar    1  UNL1       -0.1675
     15 C         141.9970  138.6391  161.0250 C.3     1  UNL1        0.1591
     16 O         144.4608  138.1589  161.6951 O.3     1  UNL1       -0.3799
     17 C         143.1921  137.7327  161.0177 C.3     1  UNL1        0.1635
     18 H         145.1290  137.4626  161.5975 H       1  UNL1        0.2105
     19 C         140.9981  141.9852  168.5628 C.3     1  UNL1        0.1572
     20 C         141.3618  142.4723  167.1914 C.ar    1  UNL1        0.0023
     21 C         140.3522  143.2144  166.3668 C.ar    1  UNL1       -0.0008
     22 C         140.7159  143.7014  164.9956 C.ar    1  UNL1        0.0188
     23 C         142.0892  143.4464  164.4488 C.ar    1  UNL1        0.0813
     24 N         142.4529  143.9334  163.0775 N.ar    1  UNL1       -0.2438
     25 C         143.8262  143.6784  162.5308 C.ar    1  UNL1        0.0988
     26 C         144.8358  142.9362  163.3554 C.ar    1  UNL1        0.0207
     27 C         144.4722  142.4492  164.7267 C.ar    1  UNL1        0.0031
     28 C         143.0989  142.7043  165.2734 C.ar    1  UNL1        0.0174
     29 C         142.7351  142.2172  166.6447 C.ar    1  UNL1       -0.0008
@<TRIPOS>BOND
     1    16    17    1
     2    17    15    1
     3    15    10    1
     4    10    11   ar
     5    11    12   ar
     6    12     1    1
     7     1     2   ar
     8     2     3   ar
     9     3     4   ar
    10     4     5   ar
    11     5     6   ar
    12     6     7   ar
    13     7    19    1
    14    19    20    1
    15    20    21   ar
    16    21    22   ar
    17    22    23   ar
    18    23    24   ar
    19    24    25   ar
    20    25    26   ar
    21    26    27   ar
    22    27    28   ar
    23    28    29   ar
    24     7     8   ar
    25     8     9   ar
    26    12    13   ar
    27    13    14   ar
    28    14    10   ar
    29     9     1   ar
    30     8     4   ar
    31    29    20   ar
    32    28    23   ar
    33    16    18    1
@<TRIPOS>MOLECULE
*****
 29 33 0 0 0
SMALL
GASTEIGER

@<TRIPOS>ATOM
      1 C         138.9117  138.8603  165.7763 C.ar    1  UNL1        0.1052
      2 C         137.8145  138.1078  166.4690 C.ar    1  UNL1        0.1199
      3 N         137.5135  138.3808  167.9130 N.ar    1  UNL1       -0.2194
      4 C         138.3098  139.4063  168.6640 C.ar    1  UNL1        0.2212
      5 N         138.2427  139.8869  170.0834 N.ar    1  UNL1       -0.1076
      6 N         139.2985  140.9364  170.2679 N.ar    1  UNL1       -0.0607
      7 N         140.0180  141.1045  168.9625 N.ar    1  UNL1       -0.2090
      8 C         139.4070  140.1589  167.9713 C.ar    1  UNL1        0.1994
      9 N         139.7080  139.8858  166.5274 N.ar    1  UNL1       -0.2225
     10 N         139.3250  138.8013  161.9174 N.ar    1  UNL1       -0.2468
     11 C         138.8221  139.4530  163.1713 C.ar    1  UNL1        0.0983
     12 C         139.2126  138.5872  164.3324 C.ar    1  UNL1        0.0588
     13 C         139.9567  137.4004  163.7960 C.ar    1  UNL1        0.1232
     14 N         140.0262  137.5327  162.3034 N.ar    1  UNL1       -0.1675
     15 C         139.1562  139.3260  160.5223 C.3     1  UNL1        0.1591
     16 O         136.5596  139.2471  160.5561 O.3     1  UNL1       -0.3799
     17 C         137.8339  139.8833  160.0855 C.3     1  UNL1        0.1635
     18 H         135.8025  139.7262  160.1843 H       1  UNL1        0.2105
     19 C         141.1499  142.0518  168.6952 C.3     1  UNL1        0.1572
     20 C         141.4723  142.4570  167.2874 C.ar    1  UNL1        0.0023
     21 C         140.4465  143.1725  166.4593 C.ar    1  UNL1       -0.0008
     22 C         140.7689  143.5776  165.0515 C.ar    1  UNL1        0.0188
     23 C         142.1171  143.2673  164.4718 C.ar    1  UNL1        0.0813
     24 N         142.4395  143.6724  163.0640 N.ar    1  UNL1       -0.2438
     25 C         143.7877  143.3620  162.4843 C.ar    1  UNL1        0.0988
     26 C         144.8135  142.6465  163.3124 C.ar    1  UNL1        0.0207
     27 C         144.4911  142.2414  164.7202 C.ar    1  UNL1        0.0031
     28 C         143.1429  142.5517  165.2999 C.ar    1  UNL1        0.0174
     29 C         142.8205  142.1466  166.7077 C.ar    1  UNL1       -0.0008
@<TRIPOS>BOND
     1    16    17    1
     2    17    15    1
     3    15    10    1
     4    10    11   ar
     5    11    12   ar
     6    12     1    1
     7     1     2   ar
     8     2     3   ar
     9     3     4   ar
    10     4     5   ar
    11     5     6   ar
    12     6     7   ar
    13     7    19    1
    14    19    20    1
    15    20    21   ar
    16    21    22   ar
    17    22    23   ar
    18    23    24   ar
    19    24    25   ar
    20    25    26   ar
    21    26    27   ar
    22    27    28   ar
    23    28    29   ar
    24     7     8   ar
    25     8     9   ar
    26    12    13   ar
    27    13    14   ar
    28    14    10   ar
    29     9     1   ar
    30     8     4   ar
    31    29    20   ar
    32    28    23   ar
    33    16    18    1
