@<TRIPOS>MOLECULE
*****
 27 29 0 0 0
SMALL
GASTEIGER

@<TRIPOS>ATOM
      1 C         140.0251  141.7316  165.3452 C.3     1  UNL1        0.4092
      2 N         139.7063  140.3944  164.7449 N.ar    1  UNL1       -0.1494
      3 C         139.9389  140.1540  163.2827 C.ar    1  UNL1        0.2699
      4 C         139.6201  138.8169  162.6825 C.ar    1  UNL1        0.0787
      5 C         139.0687  137.7201  163.5444 C.ar    1  UNL1        0.0136
      6 C         138.8360  137.9605  165.0066 C.ar    1  UNL1        0.0787
      7 C         139.1548  139.2977  165.6068 C.ar    1  UNL1        0.2699
      8 C         140.4903  141.2509  162.4207 C.1     1  UNL1        0.0075
      9 C         141.0418  142.3476  161.5588 C.1     1  UNL1       -0.0335
     10 C         141.5932  143.4444  160.6968 C.3     1  UNL1        0.2816
     11 O         142.9566  144.0041  160.9759 O.3     1  UNL1       -0.4612
     12 C         143.7553  143.4894  162.1365 C.ar    1  UNL1        0.1400
     13 C         144.7474  142.3829  161.9324 C.ar    1  UNL1        0.0369
     14 C         145.5462  141.8682  163.0931 C.ar    1  UNL1        0.0031
     15 C         145.3529  142.4600  164.4578 C.ar    1  UNL1        0.0002
     16 C         144.3608  143.5664  164.6619 C.ar    1  UNL1        0.0031
     17 C         143.5620  144.0811  163.5013 C.ar    1  UNL1        0.0369
     18 C         138.9222  139.5380  167.0691 C.1     1  UNL1        0.0075
     19 C         138.6895  139.7784  168.5313 C.1     1  UNL1       -0.0335
     20 C         138.4569  140.0188  169.9936 C.3     1  UNL1        0.2816
     21 O         139.6225  140.1120  170.9331 O.3     1  UNL1       -0.4612
     22 C         140.8191  140.9378  170.5639 C.ar    1  UNL1        0.1400
     23 C         142.1398  140.2732  170.3108 C.ar    1  UNL1        0.0369
     24 C         143.3364  141.0989  169.9416 C.ar    1  UNL1        0.0031
     25 C         143.2123  142.5893  169.8256 C.ar    1  UNL1        0.0002
     26 C         141.8916  143.2539  170.0787 C.ar    1  UNL1        0.0031
     27 C         140.6950  142.4281  170.4478 C.ar    1  UNL1        0.0369
@<TRIPOS>UNITY_ATOM_ATTR
2 1
charge 1
@<TRIPOS>BOND
     1     1     2    1
     2     2     3   ar
     3     3     8    1
     4     8     9    3
     5     9    10    1
     6    10    11    1
     7    11    12    1
     8    12    13   ar
     9    13    14   ar
    10    14    15   ar
    11    15    16   ar
    12    16    17   ar
    13     3     4   ar
    14     4     5   ar
    15     5     6   ar
    16     6     7   ar
    17     7    18    1
    18    18    19    3
    19    19    20    1
    20    20    21    1
    21    21    22    1
    22    22    23   ar
    23    23    24   ar
    24    24    25   ar
    25    25    26   ar
    26    26    27   ar
    27     7     2   ar
    28    27    22   ar
    29    17    12   ar
@<TRIPOS>MOLECULE
*****
 27 29 0 0 0
SMALL
GASTEIGER

@<TRIPOS>ATOM
      1 C         140.1162  141.5979  165.2058 C.3     1  UNL1        0.4092
      2 N         139.7473  140.2752  164.6024 N.ar    1  UNL1       -0.1494
      3 C         139.1464  139.2011  165.4598 C.ar    1  UNL1        0.2699
      4 C         138.7775  137.8783  164.8563 C.ar    1  UNL1        0.0787
      5 C         139.0095  137.6296  163.3954 C.ar    1  UNL1        0.0136
      6 C         139.6104  138.7037  162.5380 C.ar    1  UNL1        0.0787
      7 C         139.9793  140.0265  163.1415 C.ar    1  UNL1        0.2699
      8 C         138.9144  139.4497  166.9208 C.1     1  UNL1        0.0075
      9 C         138.6825  139.6983  168.3817 C.1     1  UNL1       -0.0335
     10 C         138.4504  139.9470  169.8427 C.3     1  UNL1        0.2816
     11 O         139.6115  139.9780  170.7918 O.3     1  UNL1       -0.4612
     12 C         140.8027  140.8388  170.4918 C.ar    1  UNL1        0.1400
     13 C         142.1496  140.2108  170.2880 C.ar    1  UNL1        0.0369
     14 C         143.3408  141.0716  169.9880 C.ar    1  UNL1        0.0031
     15 C         143.1851  142.5604  169.8916 C.ar    1  UNL1        0.0002
     16 C         141.8383  143.1884  170.0953 C.ar    1  UNL1        0.0031
     17 C         140.6470  142.3276  170.3954 C.ar    1  UNL1        0.0369
     18 C         140.5803  141.1006  162.2839 C.1     1  UNL1        0.0075
     19 C         141.1811  142.1746  161.4264 C.1     1  UNL1       -0.0335
     20 C         141.7820  143.2488  160.5689 C.3     1  UNL1        0.2816
     21 O         142.9958  143.9934  161.0403 O.3     1  UNL1       -0.4612
     22 C         143.7825  143.4813  162.2103 C.ar    1  UNL1        0.1400
     23 C         144.8137  142.4105  162.0098 C.ar    1  UNL1        0.0369
     24 C         145.6003  141.8984  163.1797 C.ar    1  UNL1        0.0031
     25 C         145.3559  142.4570  164.5503 C.ar    1  UNL1        0.0002
     26 C         144.3247  143.5277  164.7508 C.ar    1  UNL1        0.0031
     27 C         143.5380  144.0399  163.5807 C.ar    1  UNL1        0.0369
@<TRIPOS>UNITY_ATOM_ATTR
2 1
charge 1
@<TRIPOS>BOND
     1     1     2    1
     2     2     3   ar
     3     3     8    1
     4     8     9    3
     5     9    10    1
     6    10    11    1
     7    11    12    1
     8    12    13   ar
     9    13    14   ar
    10    14    15   ar
    11    15    16   ar
    12    16    17   ar
    13     3     4   ar
    14     4     5   ar
    15     5     6   ar
    16     6     7   ar
    17     7    18    1
    18    18    19    3
    19    19    20    1
    20    20    21    1
    21    21    22    1
    22    22    23   ar
    23    23    24   ar
    24    24    25   ar
    25    25    26   ar
    26    26    27   ar
    27     7     2   ar
    28    27    22   ar
    29    17    12   ar
@<TRIPOS>MOLECULE
*****
 27 29 0 0 0
SMALL
GASTEIGER

@<TRIPOS>ATOM
      1 C         140.7722  140.8731  163.8375 C.3     1  UNL1        0.4092
      2 N         140.1115  139.9060  162.9004 N.ar    1  UNL1       -0.1494
      3 C         139.0678  138.9587  163.4134 C.ar    1  UNL1        0.2699
      4 C         138.4072  137.9915  162.4763 C.ar    1  UNL1        0.0787
      5 C         138.7903  137.9716  161.0262 C.ar    1  UNL1        0.0136
      6 C         139.8340  138.9189  160.5132 C.ar    1  UNL1        0.0787
      7 C         140.4946  139.8861  161.4503 C.ar    1  UNL1        0.2699
      8 C         138.6846  138.9785  164.8635 C.1     1  UNL1        0.0075
      9 C         138.3014  138.9984  166.3136 C.1     1  UNL1       -0.0335
     10 C         137.9183  139.0183  167.7637 C.3     1  UNL1        0.2816
     11 O         138.8264  139.6595  168.7707 O.3     1  UNL1       -0.4612
     12 C         140.1108  140.2937  168.3257 C.ar    1  UNL1        0.1400
     13 C         140.0952  141.6508  167.6868 C.ar    1  UNL1        0.0369
     14 C         141.3795  142.2850  167.2417 C.ar    1  UNL1        0.0031
     15 C         142.6795  141.5622  167.4355 C.ar    1  UNL1        0.0002
     16 C         142.6952  140.2052  168.0744 C.ar    1  UNL1        0.0031
     17 C         141.4108  139.5709  168.5195 C.ar    1  UNL1        0.0369
     18 C         141.5385  140.8334  160.9373 C.1     1  UNL1        0.0075
     19 C         142.5822  141.7807  160.4242 C.1     1  UNL1       -0.0335
     20 C         143.6260  142.7280  159.9111 C.3     1  UNL1        0.2816
     21 O         144.8320  143.0394  160.7469 O.3     1  UNL1       -0.4612
     22 C         144.6894  143.2292  162.2280 C.ar    1  UNL1        0.1400
     23 C         144.0170  144.4576  162.7654 C.ar    1  UNL1        0.0369
     24 C         143.8744  144.6474  164.2465 C.ar    1  UNL1        0.0031
     25 C         144.4042  143.6088  165.1902 C.ar    1  UNL1        0.0002
     26 C         145.0765  142.3803  164.6528 C.ar    1  UNL1        0.0031
     27 C         145.2191  142.1905  163.1716 C.ar    1  UNL1        0.0369
@<TRIPOS>UNITY_ATOM_ATTR
2 1
charge 1
@<TRIPOS>BOND
     1     1     2    1
     2     2     3   ar
     3     3     8    1
     4     8     9    3
     5     9    10    1
     6    10    11    1
     7    11    12    1
     8    12    13   ar
     9    13    14   ar
    10    14    15   ar
    11    15    16   ar
    12    16    17   ar
    13     3     4   ar
    14     4     5   ar
    15     5     6   ar
    16     6     7   ar
    17     7    18    1
    18    18    19    3
    19    19    20    1
    20    20    21    1
    21    21    22    1
    22    22    23   ar
    23    23    24   ar
    24    24    25   ar
    25    25    26   ar
    26    26    27   ar
    27     7     2   ar
    28    27    22   ar
    29    17    12   ar
@<TRIPOS>MOLECULE
*****
 27 29 0 0 0
SMALL
GASTEIGER

@<TRIPOS>ATOM
      1 C         141.4814  140.8877  165.7903 C.3     1  UNL1        0.4092
      2 N         140.7313  139.8067  165.0701 N.ar    1  UNL1       -0.1494
      3 C         141.1066  139.4421  163.6644 C.ar    1  UNL1        0.2699
      4 C         140.3565  138.3611  162.9442 C.ar    1  UNL1        0.0787
      5 C         139.2311  137.6446  163.6297 C.ar    1  UNL1        0.0136
      6 C         138.8558  138.0091  165.0355 C.ar    1  UNL1        0.0787
      7 C         139.6059  139.0901  165.7557 C.ar    1  UNL1        0.2699
      8 C         142.2320  140.1587  162.9787 C.1     1  UNL1        0.0075
      9 C         143.3574  140.8751  162.2931 C.1     1  UNL1       -0.0335
     10 C         144.4829  141.5916  161.6075 C.3     1  UNL1        0.2816
     11 O         144.5822  143.0860  161.6913 O.3     1  UNL1       -0.4612
     12 C         143.3760  143.8983  162.0590 C.ar    1  UNL1        0.1400
     13 C         142.2503  144.0550  161.0799 C.ar    1  UNL1        0.0369
     14 C         141.0442  144.8673  161.4476 C.ar    1  UNL1        0.0031
     15 C         140.9635  145.5229  162.7943 C.ar    1  UNL1        0.0002
     16 C         142.0891  145.3662  163.7733 C.ar    1  UNL1        0.0031
     17 C         143.2954  144.5539  163.4057 C.ar    1  UNL1        0.0369
     18 C         139.2305  139.4547  167.1615 C.1     1  UNL1        0.0075
     19 C         138.8552  139.8191  168.5673 C.1     1  UNL1       -0.0335
     20 C         138.4798  140.1836  169.9732 C.3     1  UNL1        0.2816
     21 O         139.5491  140.4016  171.0023 O.3     1  UNL1       -0.4612
     22 C         140.8283  141.0859  170.6215 C.ar    1  UNL1        0.1400
     23 C         140.8672  142.5788  170.4804 C.ar    1  UNL1        0.0369
     24 C         142.1464  143.2631  170.0995 C.ar    1  UNL1        0.0031
     25 C         143.3870  142.4546  169.8597 C.ar    1  UNL1        0.0002
     26 C         143.3482  140.9617  170.0008 C.ar    1  UNL1        0.0031
     27 C         142.0688  140.2774  170.3817 C.ar    1  UNL1        0.0369
@<TRIPOS>UNITY_ATOM_ATTR
2 1
charge 1
@<TRIPOS>BOND
     1     1     2    1
     2     2     3   ar
     3     3     8    1
     4     8     9    3
     5     9    10    1
     6    10    11    1
     7    11    12    1
     8    12    13   ar
     9    13    14   ar
    10    14    15   ar
    11    15    16   ar
    12    16    17   ar
    13     3     4   ar
    14     4     5   ar
    15     5     6   ar
    16     6     7   ar
    17     7    18    1
    18    18    19    3
    19    19    20    1
    20    20    21    1
    21    21    22    1
    22    22    23   ar
    23    23    24   ar
    24    24    25   ar
    25    25    26   ar
    26    26    27   ar
    27     7     2   ar
    28    27    22   ar
    29    17    12   ar
@<TRIPOS>MOLECULE
*****
 27 29 0 0 0
SMALL
GASTEIGER

@<TRIPOS>ATOM
      1 C         142.1283  141.6979  163.8349 C.3     1  UNL1        0.4092
      2 N         142.7443  140.9961  162.6611 N.ar    1  UNL1       -0.1494
      3 C         143.4782  139.7033  162.8608 C.ar    1  UNL1        0.2699
      4 C         144.0942  139.0014  161.6869 C.ar    1  UNL1        0.0787
      5 C         143.9762  139.5924  160.3133 C.ar    1  UNL1        0.0136
      6 C         143.2423  140.8852  160.1136 C.ar    1  UNL1        0.0787
      7 C         142.6263  141.5871  161.2875 C.ar    1  UNL1        0.2699
      8 C         143.5962  139.1122  164.2344 C.1     1  UNL1        0.0075
      9 C         143.7141  138.5212  165.6080 C.1     1  UNL1       -0.0335
     10 C         143.8321  137.9302  166.9816 C.3     1  UNL1        0.2816
     11 O         143.2045  138.6249  168.1535 O.3     1  UNL1       -0.4612
     12 C         142.3838  139.8623  167.9403 C.ar    1  UNL1        0.1400
     13 C         141.0173  139.7600  167.3302 C.ar    1  UNL1        0.0369
     14 C         140.1966  140.9973  167.1170 C.ar    1  UNL1        0.0031
     15 C         140.7424  142.3369  167.5139 C.ar    1  UNL1        0.0002
     16 C         142.1089  142.4392  168.1239 C.ar    1  UNL1        0.0031
     17 C         142.9296  141.2019  168.3372 C.ar    1  UNL1        0.0369
     18 C         141.8924  142.8800  161.0877 C.1     1  UNL1        0.0075
     19 C         141.1584  144.1728  160.8879 C.1     1  UNL1       -0.0335
     20 C         140.4245  145.4656  160.6881 C.3     1  UNL1        0.2816
     21 O         139.2338  145.7915  161.5403 O.3     1  UNL1       -0.4612
     22 C         138.7995  144.8417  162.6168 C.ar    1  UNL1        0.1400
     23 C         137.9611  143.6472  162.2698 C.ar    1  UNL1        0.0369
     24 C         137.5267  142.6974  163.3463 C.ar    1  UNL1        0.0031
     25 C         137.9308  142.9419  164.7701 C.ar    1  UNL1        0.0002
     26 C         138.7691  144.1363  165.1172 C.ar    1  UNL1        0.0031
     27 C         139.2035  145.0862  164.0405 C.ar    1  UNL1        0.0369
@<TRIPOS>UNITY_ATOM_ATTR
2 1
charge 1
@<TRIPOS>BOND
     1     1     2    1
     2     2     3   ar
     3     3     8    1
     4     8     9    3
     5     9    10    1
     6    10    11    1
     7    11    12    1
     8    12    13   ar
     9    13    14   ar
    10    14    15   ar
    11    15    16   ar
    12    16    17   ar
    13     3     4   ar
    14     4     5   ar
    15     5     6   ar
    16     6     7   ar
    17     7    18    1
    18    18    19    3
    19    19    20    1
    20    20    21    1
    21    21    22    1
    22    22    23   ar
    23    23    24   ar
    24    24    25   ar
    25    25    26   ar
    26    26    27   ar
    27     7     2   ar
    28    27    22   ar
    29    17    12   ar
@<TRIPOS>MOLECULE
*****
 27 29 0 0 0
SMALL
GASTEIGER

@<TRIPOS>ATOM
      1 C         142.1289  141.5759  163.8539 C.3     1  UNL1        0.4092
      2 N         142.7371  140.8216  162.7089 N.ar    1  UNL1       -0.1494
      3 C         142.6167  141.3538  161.3118 C.ar    1  UNL1        0.2699
      4 C         143.2248  140.5994  160.1668 C.ar    1  UNL1        0.0787
      5 C         143.9535  139.3128  160.4190 C.ar    1  UNL1        0.0136
      6 C         144.0739  138.7805  161.8161 C.ar    1  UNL1        0.0787
      7 C         143.4657  139.5349  162.9611 C.ar    1  UNL1        0.2699
      8 C         141.8880  142.6405  161.0595 C.1     1  UNL1        0.0075
      9 C         141.1594  143.9271  160.8073 C.1     1  UNL1       -0.0335
     10 C         140.4307  145.2138  160.5550 C.3     1  UNL1        0.2816
     11 O         139.3100  145.6310  161.4605 O.3     1  UNL1       -0.4612
     12 C         138.8454  144.7121  162.5512 C.ar    1  UNL1        0.1400
     13 C         138.0008  143.5183  162.2171 C.ar    1  UNL1        0.0369
     14 C         137.5362  142.5994  163.3078 C.ar    1  UNL1        0.0031
     15 C         137.9162  142.8742  164.7327 C.ar    1  UNL1        0.0002
     16 C         138.7607  144.0680  165.0668 C.ar    1  UNL1        0.0031
     17 C         139.2254  144.9870  163.9760 C.ar    1  UNL1        0.0369
     18 C         143.5862  139.0026  164.3584 C.1     1  UNL1        0.0075
     19 C         143.7067  138.4703  165.7555 C.1     1  UNL1       -0.0335
     20 C         143.8272  137.9380  167.1528 C.3     1  UNL1        0.2816
     21 O         143.1016  138.6142  168.2781 O.3     1  UNL1       -0.4612
     22 C         142.3708  139.9010  168.0334 C.ar    1  UNL1        0.1400
     23 C         142.9971  141.2059  168.4270 C.ar    1  UNL1        0.0369
     24 C         142.2662  142.4927  168.1822 C.ar    1  UNL1        0.0031
     25 C         140.9089  142.4746  167.5439 C.ar    1  UNL1        0.0002
     26 C         140.2826  141.1697  167.1503 C.ar    1  UNL1        0.0031
     27 C         141.0135  139.8829  167.3950 C.ar    1  UNL1        0.0369
@<TRIPOS>UNITY_ATOM_ATTR
2 1
charge 1
@<TRIPOS>BOND
     1     1     2    1
     2     2     3   ar
     3     3     8    1
     4     8     9    3
     5     9    10    1
     6    10    11    1
     7    11    12    1
     8    12    13   ar
     9    13    14   ar
    10    14    15   ar
    11    15    16   ar
    12    16    17   ar
    13     3     4   ar
    14     4     5   ar
    15     5     6   ar
    16     6     7   ar
    17     7    18    1
    18    18    19    3
    19    19    20    1
    20    20    21    1
    21    21    22    1
    22    22    23   ar
    23    23    24   ar
    24    24    25   ar
    25    25    26   ar
    26    26    27   ar
    27     7     2   ar
    28    27    22   ar
    29    17    12   ar
@<TRIPOS>MOLECULE
*****
 27 29 0 0 0
SMALL
GASTEIGER

@<TRIPOS>ATOM
      1 C         141.0907  140.6303  163.5446 C.3     1  UNL1        0.4092
      2 N         140.0331  140.2748  162.5420 N.ar    1  UNL1       -0.1494
      3 C         140.2537  140.5605  161.0861 C.ar    1  UNL1        0.2699
      4 C         139.1961  140.2050  160.0835 C.ar    1  UNL1        0.0787
      5 C         137.9181  139.5639  160.5368 C.ar    1  UNL1        0.0136
      6 C         137.6976  139.2783  161.9927 C.ar    1  UNL1        0.0787
      7 C         138.7551  139.6337  162.9953 C.ar    1  UNL1        0.2699
      8 C         141.5318  141.2016  160.6328 C.1     1  UNL1        0.0075
      9 C         142.8098  141.8428  160.1795 C.1     1  UNL1       -0.0335
     10 C         144.0879  142.4839  159.7261 C.3     1  UNL1        0.2816
     11 O         145.1816  142.7578  160.7154 O.3     1  UNL1       -0.4612
     12 C         144.8451  143.0061  162.1558 C.ar    1  UNL1        0.1400
     13 C         145.1670  141.9691  163.1908 C.ar    1  UNL1        0.0369
     14 C         144.8304  142.2175  164.6313 C.ar    1  UNL1        0.0031
     15 C         144.1719  143.5027  165.0369 C.ar    1  UNL1        0.0002
     16 C         143.8500  144.5397  164.0020 C.ar    1  UNL1        0.0031
     17 C         144.1866  144.2914  162.5614 C.ar    1  UNL1        0.0369
     18 C         138.5345  139.3480  164.4513 C.1     1  UNL1        0.0075
     19 C         138.3140  139.0624  165.9072 C.1     1  UNL1       -0.0335
     20 C         138.0934  138.7767  167.3632 C.3     1  UNL1        0.2816
     21 O         138.6776  139.6865  168.4029 O.3     1  UNL1       -0.4612
     22 C         140.0236  140.3106  168.1824 C.ar    1  UNL1        0.1400
     23 C         140.1387  141.5925  167.4120 C.ar    1  UNL1        0.0369
     24 C         141.4847  142.2167  167.1916 C.ar    1  UNL1        0.0031
     25 C         142.7157  141.5590  167.7415 C.ar    1  UNL1        0.0002
     26 C         142.6005  140.2771  168.5118 C.ar    1  UNL1        0.0031
     27 C         141.2544  139.6529  168.7323 C.ar    1  UNL1        0.0369
@<TRIPOS>UNITY_ATOM_ATTR
2 1
charge 1
@<TRIPOS>BOND
     1     1     2    1
     2     2     3   ar
     3     3     8    1
     4     8     9    3
     5     9    10    1
     6    10    11    1
     7    11    12    1
     8    12    13   ar
     9    13    14   ar
    10    14    15   ar
    11    15    16   ar
    12    16    17   ar
    13     3     4   ar
    14     4     5   ar
    15     5     6   ar
    16     6     7   ar
    17     7    18    1
    18    18    19    3
    19    19    20    1
    20    20    21    1
    21    21    22    1
    22    22    23   ar
    23    23    24   ar
    24    24    25   ar
    25    25    26   ar
    26    26    27   ar
    27     7     2   ar
    28    27    22   ar
    29    17    12   ar
@<TRIPOS>MOLECULE
*****
 27 29 0 0 0
SMALL
GASTEIGER

@<TRIPOS>ATOM
      1 C         138.8084  141.5859  164.9472 C.3     1  UNL1        0.4092
      2 N         138.8641  140.1453  164.5327 N.ar    1  UNL1       -0.1494
      3 C         138.8486  139.0645  165.5726 C.ar    1  UNL1        0.2699
      4 C         138.9043  137.6240  165.1581 C.ar    1  UNL1        0.0787
      5 C         138.9753  137.2643  163.7037 C.ar    1  UNL1        0.0136
      6 C         138.9908  138.3451  162.6637 C.ar    1  UNL1        0.0787
      7 C         138.9351  139.7856  163.0782 C.ar    1  UNL1        0.2699
      8 C         138.7776  139.4242  167.0272 C.1     1  UNL1        0.0075
      9 C         138.7065  139.7838  168.4817 C.1     1  UNL1       -0.0335
     10 C         138.6355  140.1435  169.9362 C.3     1  UNL1        0.2816
     11 O         139.4121  141.3160  170.4577 O.3     1  UNL1       -0.4612
     12 C         140.7732  141.6196  169.9052 C.ar    1  UNL1        0.1400
     13 C         140.9090  142.4132  168.6396 C.ar    1  UNL1        0.0369
     14 C         142.2700  142.7168  168.0870 C.ar    1  UNL1        0.0031
     15 C         143.4953  142.2268  168.8001 C.ar    1  UNL1        0.0002
     16 C         143.3596  141.4332  170.0657 C.ar    1  UNL1        0.0031
     17 C         141.9985  141.1296  170.6183 C.ar    1  UNL1        0.0369
     18 C         138.9506  140.8665  162.0382 C.1     1  UNL1        0.0075
     19 C         138.9660  141.9473  160.9982 C.1     1  UNL1       -0.0335
     20 C         138.9814  143.0282  159.9582 C.3     1  UNL1        0.2816
     21 O         139.5706  144.3697  160.2794 O.3     1  UNL1       -0.4612
     22 C         140.5040  144.5195  161.4439 C.ar    1  UNL1        0.1400
     23 C         141.9744  144.2854  161.2615 C.ar    1  UNL1        0.0369
     24 C         142.9078  144.4352  162.4260 C.ar    1  UNL1        0.0031
     25 C         142.3709  144.8191  163.7731 C.ar    1  UNL1        0.0002
     26 C         140.9006  145.0533  163.9555 C.ar    1  UNL1        0.0031
     27 C         139.9671  144.9035  162.7909 C.ar    1  UNL1        0.0369
@<TRIPOS>UNITY_ATOM_ATTR
2 1
charge 1
@<TRIPOS>BOND
     1     1     2    1
     2     2     3   ar
     3     3     8    1
     4     8     9    3
     5     9    10    1
     6    10    11    1
     7    11    12    1
     8    12    13   ar
     9    13    14   ar
    10    14    15   ar
    11    15    16   ar
    12    16    17   ar
    13     3     4   ar
    14     4     5   ar
    15     5     6   ar
    16     6     7   ar
    17     7    18    1
    18    18    19    3
    19    19    20    1
    20    20    21    1
    21    21    22    1
    22    22    23   ar
    23    23    24   ar
    24    24    25   ar
    25    25    26   ar
    26    26    27   ar
    27     7     2   ar
    28    27    22   ar
    29    17    12   ar
@<TRIPOS>MOLECULE
*****
 27 29 0 0 0
SMALL
GASTEIGER

@<TRIPOS>ATOM
      1 C         141.9803  142.9300  159.4217 C.3     1  UNL1        0.4092
      2 N         141.4397  143.6728  160.6074 N.ar    1  UNL1       -0.1494
      3 C         140.6692  144.9443  160.4084 C.ar    1  UNL1        0.2699
      4 C         140.1286  145.6871  161.5941 C.ar    1  UNL1        0.0787
      5 C         140.3585  145.1584  162.9789 C.ar    1  UNL1        0.0136
      6 C         141.1290  143.8869  163.1779 C.ar    1  UNL1        0.0787
      7 C         141.6696  143.1441  161.9922 C.ar    1  UNL1        0.2699
      8 C         140.4393  145.4730  159.0236 C.1     1  UNL1        0.0075
      9 C         140.2095  146.0018  157.6388 C.1     1  UNL1       -0.0335
     10 C         139.9796  146.5305  156.2540 C.3     1  UNL1        0.2816
     11 O         138.7710  147.3699  155.9627 O.3     1  UNL1       -0.4612
     12 C         138.9348  148.7498  155.3981 C.ar    1  UNL1        0.1400
     13 C         138.4185  149.9366  156.1565 C.ar    1  UNL1        0.0369
     14 C         138.5822  151.3166  155.5919 C.ar    1  UNL1        0.0031
     15 C         139.2622  151.5099  154.2689 C.ar    1  UNL1        0.0002
     16 C         139.7784  150.3232  153.5105 C.ar    1  UNL1        0.0031
     17 C         139.6147  148.9431  154.0751 C.ar    1  UNL1        0.0369
     18 C         142.4401  141.8726  162.1913 C.1     1  UNL1        0.0075
     19 C         143.2106  140.6011  162.3903 C.1     1  UNL1       -0.0335
     20 C         143.9811  139.3296  162.5894 C.3     1  UNL1        0.2816
     21 O         143.2763  138.0072  162.5224 O.3     1  UNL1       -0.4612
     22 C         141.8297  137.9081  162.9064 C.ar    1  UNL1        0.1400
     23 C         141.4476  137.6900  164.3404 C.ar    1  UNL1        0.0369
     24 C         140.0010  137.5909  164.7244 C.ar    1  UNL1        0.0031
     25 C         138.9364  137.7098  163.6744 C.ar    1  UNL1        0.0002
     26 C         139.3185  137.9279  162.2403 C.ar    1  UNL1        0.0031
     27 C         140.7652  138.0270  161.8564 C.ar    1  UNL1        0.0369
@<TRIPOS>UNITY_ATOM_ATTR
2 1
charge 1
@<TRIPOS>BOND
     1     1     2    1
     2     2     3   ar
     3     3     8    1
     4     8     9    3
     5     9    10    1
     6    10    11    1
     7    11    12    1
     8    12    13   ar
     9    13    14   ar
    10    14    15   ar
    11    15    16   ar
    12    16    17   ar
    13     3     4   ar
    14     4     5   ar
    15     5     6   ar
    16     6     7   ar
    17     7    18    1
    18    18    19    3
    19    19    20    1
    20    20    21    1
    21    21    22    1
    22    22    23   ar
    23    23    24   ar
    24    24    25   ar
    25    25    26   ar
    26    26    27   ar
    27     7     2   ar
    28    27    22   ar
    29    17    12   ar
