@<TRIPOS>MOLECULE
*****
 42 45 0 0 0
SMALL
GASTEIGER

@<TRIPOS>ATOM
      1 N         144.9204  138.1613  163.1940 N.pl3   1  UNL1       -0.2532
      2 C         144.1006  138.5637  162.0040 C.2     1  UNL1        0.3612
      3 N         143.8047  139.9665  162.4451 N.am    1  UNL1       -0.0062
      4 C         143.3220  141.3820  162.5603 C.2     1  UNL1        0.3358
      5 O         143.9467  141.6862  163.8897 O.2     1  UNL1       -0.2516
      6 C         142.6827  142.7213  162.3423 C.3     1  UNL1        0.1697
      7 C         143.2706  143.1120  163.6657 C.3     1  UNL1        0.0326
      8 C         142.8783  144.5324  163.9461 C.3     1  UNL1        0.0237
      9 C         142.0478  145.0196  162.7959 C.3     1  UNL1        0.0913
     10 N         141.9269  143.9003  161.8046 N.pl3   1  UNL1       -0.3002
     11 C         141.1022  144.8447  160.9812 C.ar    1  UNL1        0.0484
     12 C         140.4865  146.2027  160.8183 C.ar    1  UNL1        0.0176
     13 C         139.6805  146.5187  159.5934 C.ar    1  UNL1        0.0382
     14 C         139.4902  145.4766  158.5314 C.ar    1  UNL1        0.1386
     15 C         140.1060  144.1186  158.6943 C.ar    1  UNL1        0.0382
     16 C         140.9120  143.8027  159.9192 C.ar    1  UNL1        0.0176
     17 O         138.1469  145.3821  156.0599 O.3     1  UNL1       -0.4755
     18 C         137.7275  144.6638  154.8116 C.3     1  UNL1        0.2054
     19 C         137.5030  143.6631  153.7169 C.3     1  UNL1        0.0474
     20 C         137.4876  142.4429  152.8447 C.3     1  UNL1        0.0053
     21 C         137.6822  141.0797  152.2498 C.3     1  UNL1        0.0172
     22 C         138.0746  139.6593  151.9694 C.3     1  UNL1        0.0689
     23 N         138.6401  138.2710  152.0213 N.3     1  UNL1       -0.2898
     24 C         139.3431  137.0019  152.4021 C.3     1  UNL1        0.1552
     25 C         140.1396  135.9318  153.0880 C.2     1  UNL1        0.2423
     26 O         139.9666  134.8697  152.0430 O.2     1  UNL1       -0.2733
     27 N         140.9795  135.1279  154.0358 N.am    1  UNL1       -0.2815
     28 C         141.8099  134.6407  155.1861 C.ar    1  UNL1        0.0717
     29 C         142.5788  134.5009  156.4664 C.ar    1  UNL1        0.0717
     30 CL        143.0172  133.0802  156.2683 Cl      1  UNL1       -0.0809
     31 C         143.2378  134.7173  157.7964 C.ar    1  UNL1        0.0116
     32 C         143.7455  135.2761  159.0926 C.ar    1  UNL1        0.0165
     33 C         142.9766  135.4159  157.8123 C.ar    1  UNL1        0.0116
     34 C         142.3176  135.1996  156.4822 C.ar    1  UNL1        0.0717
     35 CL        141.7140  136.5661  156.3470 Cl      1  UNL1       -0.0809
     36 C         144.0700  136.1425  160.2734 C.3     1  UNL1        0.1905
     37 N         144.1908  137.2617  161.2646 N.pl3   1  UNL1       -0.2228
     38 H         145.0789  138.8041  163.9227 H       1  UNL1        0.2410
     39 H         145.3001  137.2545  163.2462 H       1  UNL1        0.2410
     40 H         139.1136  138.3505  151.1214 H       1  UNL1        0.1237
     41 H         141.0041  134.2985  153.5059 H       1  UNL1        0.1549
     42 H         144.7438  136.7835  161.9239 H       1  UNL1        0.2454
@<TRIPOS>BOND
     1     1     2    1
     2     2     3    2
     3     3     4    1
     4     4     5    2
     5     4     6    1
     6     6     7    1
     7     7     8    1
     8     8     9    1
     9     9    10    1
    10    10    11    1
    11    11    12   ar
    12    12    13   ar
    13    13    14   ar
    14    14    15   ar
    15    15    16   ar
    16    14    17    1
    17    17    18    1
    18    18    19    1
    19    19    20    1
    20    20    21    1
    21    21    22    1
    22    22    23    1
    23    23    24    1
    24    24    25    1
    25    25    26    2
    26    25    27   am
    27    27    28    1
    28    28    29   ar
    29    29    30    1
    30    29    31   ar
    31    31    32   ar
    32    32    33   ar
    33    33    34   ar
    34    34    35    1
    35    32    36    1
    36    36    37    1
    37    37     2    1
    38    10     6    1
    39    16    11   ar
    40    34    28   ar
    41     1    38    1
    42     1    39    1
    43    23    40    1
    44    27    41    1
    45    37    42    1
@<TRIPOS>MOLECULE
*****
 42 45 0 0 0
SMALL
GASTEIGER

@<TRIPOS>ATOM
      1 N         145.8912  142.9298  159.3574 N.pl3   1  UNL1       -0.2532
      2 C         144.4692  142.5237  159.1069 C.2     1  UNL1        0.3612
      3 N         144.3119  141.6388  160.3078 N.am    1  UNL1       -0.0062
      4 C         143.8081  140.7078  161.3705 C.2     1  UNL1        0.3358
      5 O         145.0646  140.6587  162.1885 O.2     1  UNL1       -0.2516
      6 C         142.9894  139.7891  162.2282 C.3     1  UNL1        0.1697
      7 C         144.2014  139.6815  163.1053 C.3     1  UNL1        0.0326
      8 C         143.8683  138.7664  164.2461 C.3     1  UNL1        0.0237
      9 C         142.4504  138.3083  164.0741 C.3     1  UNL1        0.0913
     10 N         141.9072  138.9403  162.8269 N.pl3   1  UNL1       -0.3002
     11 C         140.6294  138.2150  163.1291 C.ar    1  UNL1        0.0484
     12 C         139.8602  137.2901  164.0251 C.ar    1  UNL1        0.0176
     13 C         138.4396  136.9376  163.6970 C.ar    1  UNL1        0.0382
     14 C         137.7883  137.5099  162.4730 C.ar    1  UNL1        0.1386
     15 C         138.5576  138.4348  161.5770 C.ar    1  UNL1        0.0382
     16 C         139.9781  138.7873  161.9051 C.ar    1  UNL1        0.0176
     17 O         135.2449  137.2870  161.2885 O.3     1  UNL1       -0.4755
     18 C         134.2560  137.6218  160.2114 C.3     1  UNL1        0.2054
     19 C         133.5522  138.1627  159.0022 C.3     1  UNL1        0.0474
     20 C         133.1781  138.8759  157.7368 C.3     1  UNL1        0.0053
     21 C         133.1569  139.7165  156.4945 C.3     1  UNL1        0.0172
     22 C         133.4900  140.6317  155.3537 C.3     1  UNL1        0.0689
     23 N         134.1565  141.5639  154.3859 N.3     1  UNL1       -0.2898
     24 C         135.1145  142.4546  153.6519 C.3     1  UNL1        0.1552
     25 C         136.3039  143.2479  153.1979 C.2     1  UNL1        0.2423
     26 O         135.6792  143.8356  151.9672 O.2     1  UNL1       -0.2733
     27 N         137.6498  143.8939  153.0523 N.am    1  UNL1       -0.2815
     28 C         139.0678  144.3520  153.2244 C.ar    1  UNL1        0.0717
     29 C         140.4686  144.5934  153.7032 C.ar    1  UNL1        0.0717
     30 CL        140.8879  145.5183  152.5993 Cl      1  UNL1       -0.0809
     31 C         141.7643  144.6030  154.4588 C.ar    1  UNL1        0.0116
     32 C         142.8737  144.3801  155.4437 C.ar    1  UNL1        0.0165
     33 C         141.4728  144.1387  154.9648 C.ar    1  UNL1        0.0116
     34 C         140.1770  144.1291  154.2092 C.ar    1  UNL1        0.0717
     35 CL        139.4330  143.2018  155.1238 Cl      1  UNL1       -0.0809
     36 C         143.7267  143.9387  156.5959 C.3     1  UNL1        0.1905
     37 N         144.2699  143.3067  157.8430 N.pl3   1  UNL1       -0.2228
     38 H         146.3700  142.5853  160.1456 H       1  UNL1        0.2410
     39 H         146.3458  143.5409  158.7335 H       1  UNL1        0.2410
     40 H         133.4353  142.2807  154.4654 H       1  UNL1        0.1237
     41 H         137.4612  144.3859  152.2206 H       1  UNL1        0.1549
     42 H         145.1704  143.7021  157.7996 H       1  UNL1        0.2454
@<TRIPOS>BOND
     1     1     2    1
     2     2     3    2
     3     3     4    1
     4     4     5    2
     5     4     6    1
     6     6     7    1
     7     7     8    1
     8     8     9    1
     9     9    10    1
    10    10    11    1
    11    11    12   ar
    12    12    13   ar
    13    13    14   ar
    14    14    15   ar
    15    15    16   ar
    16    14    17    1
    17    17    18    1
    18    18    19    1
    19    19    20    1
    20    20    21    1
    21    21    22    1
    22    22    23    1
    23    23    24    1
    24    24    25    1
    25    25    26    2
    26    25    27   am
    27    27    28    1
    28    28    29   ar
    29    29    30    1
    30    29    31   ar
    31    31    32   ar
    32    32    33   ar
    33    33    34   ar
    34    34    35    1
    35    32    36    1
    36    36    37    1
    37    37     2    1
    38    10     6    1
    39    16    11   ar
    40    34    28   ar
    41     1    38    1
    42     1    39    1
    43    23    40    1
    44    27    41    1
    45    37    42    1
@<TRIPOS>MOLECULE
*****
 42 45 0 0 0
SMALL
GASTEIGER

@<TRIPOS>ATOM
      1 N         138.9821  145.4572  164.4141 N.pl3   1  UNL1       -0.2532
      2 C         139.4446  144.9042  163.0987 C.2     1  UNL1        0.3612
      3 N         139.9390  143.5846  163.6128 N.am    1  UNL1       -0.0062
      4 C         140.5182  142.2094  163.7650 C.2     1  UNL1        0.3358
      5 O         140.3247  142.0868  165.2475 O.2     1  UNL1       -0.2516
      6 C         141.1459  140.8648  163.5455 C.3     1  UNL1        0.1697
      7 C         140.9910  140.6564  165.0228 C.3     1  UNL1        0.0326
      8 C         141.5321  139.2983  165.3586 C.3     1  UNL1        0.0237
      9 C         142.0213  138.6673  164.0889 C.3     1  UNL1        0.0913
     10 N         141.7826  139.6354  162.9682 N.pl3   1  UNL1       -0.3002
     11 C         142.3884  138.5985  162.0694 C.ar    1  UNL1        0.0484
     12 C         143.0107  137.2428  161.9116 C.ar    1  UNL1        0.0176
     13 C         143.4446  136.7701  160.5558 C.ar    1  UNL1        0.0382
     14 C         143.2563  137.6530  159.3579 C.ar    1  UNL1        0.1386
     15 C         142.6340  139.0087  159.5157 C.ar    1  UNL1        0.0382
     16 C         142.2001  139.4814  160.8715 C.ar    1  UNL1        0.0176
     17 O         143.8179  137.4183  156.6099 O.3     1  UNL1       -0.4755
     18 C         143.8139  137.9585  155.2105 C.3     1  UNL1        0.2054
     19 C         143.6513  138.7963  153.9770 C.3     1  UNL1        0.0474
     20 C         143.3403  139.8794  152.9870 C.3     1  UNL1        0.0053
     21 C         142.9004  141.1397  152.3026 C.3     1  UNL1        0.0172
     22 C         142.3594  142.4978  151.9668 C.3     1  UNL1        0.0689
     23 N         141.7512  143.8685  152.0008 N.3     1  UNL1       -0.2898
     24 C         141.1140  145.1657  152.4022 C.3     1  UNL1        0.1552
     25 C         140.4878  146.3078  153.1462 C.2     1  UNL1        0.2423
     26 O         140.2867  147.2127  151.9668 O.2     1  UNL1       -0.2733
     27 N         139.9120  147.2232  154.1857 N.am    1  UNL1       -0.2815
     28 C         139.4228  147.8542  155.4555 C.ar    1  UNL1        0.0717
     29 C         139.0509  148.1612  156.8759 C.ar    1  UNL1        0.0717
     30 CL        138.4896  149.5306  156.6315 Cl      1  UNL1       -0.0809
     31 C         138.8196  148.1250  158.3575 C.ar    1  UNL1        0.0116
     32 C         138.7436  147.7478  159.8074 C.ar    1  UNL1        0.0165
     33 C         139.1155  147.4408  158.3870 C.ar    1  UNL1        0.0116
     34 C         139.3467  147.4770  156.9053 C.ar    1  UNL1        0.0717
     35 CL        139.9659  146.1167  156.7784 Cl      1  UNL1       -0.0809
     36 C         138.8276  147.0533  161.1343 C.3     1  UNL1        0.1905
     37 N         139.0662  146.0852  162.2548 N.pl3   1  UNL1       -0.2228
     38 H         139.0803  144.9224  165.2348 H       1  UNL1        0.2410
     39 H         138.5803  146.3550  164.4567 H       1  UNL1        0.2410
     40 H         141.0429  143.6523  151.2993 H       1  UNL1        0.1237
     41 H         139.6853  147.9676  153.5826 H       1  UNL1        0.1549
     42 H         138.7004  146.6424  162.9793 H       1  UNL1        0.2454
@<TRIPOS>BOND
     1     1     2    1
     2     2     3    2
     3     3     4    1
     4     4     5    2
     5     4     6    1
     6     6     7    1
     7     7     8    1
     8     8     9    1
     9     9    10    1
    10    10    11    1
    11    11    12   ar
    12    12    13   ar
    13    13    14   ar
    14    14    15   ar
    15    15    16   ar
    16    14    17    1
    17    17    18    1
    18    18    19    1
    19    19    20    1
    20    20    21    1
    21    21    22    1
    22    22    23    1
    23    23    24    1
    24    24    25    1
    25    25    26    2
    26    25    27   am
    27    27    28    1
    28    28    29   ar
    29    29    30    1
    30    29    31   ar
    31    31    32   ar
    32    32    33   ar
    33    33    34   ar
    34    34    35    1
    35    32    36    1
    36    36    37    1
    37    37     2    1
    38    10     6    1
    39    16    11   ar
    40    34    28   ar
    41     1    38    1
    42     1    39    1
    43    23    40    1
    44    27    41    1
    45    37    42    1
