@<TRIPOS>MOLECULE
*****
 31 35 0 0 0
SMALL
GASTEIGER

@<TRIPOS>ATOM
      1 C         138.2927  140.0435  160.0111 C.ar    1  UNL1        0.0344
      2 C         139.2159  138.8617  159.9805 C.ar    1  UNL1        0.0061
      3 C         139.4834  138.0862  161.2363 C.ar    1  UNL1        0.0370
      4 C         138.8278  138.4927  162.5227 C.ar    1  UNL1        0.1384
      5 C         137.9046  139.6745  162.5533 C.ar    1  UNL1        0.0370
      6 C         137.6371  140.4499  161.2974 C.ar    1  UNL1        0.0061
      7 C         135.5881  140.7117  155.6248 C.ar    1  UNL1        0.2434
      8 N         135.3206  141.4871  154.3690 N.ar    1  UNL1       -0.2088
      9 C         136.1380  142.7038  154.0504 C.ar    1  UNL1        0.1023
     10 C         137.2228  143.1452  154.9876 C.ar    1  UNL1        0.0271
     11 C         137.4902  142.3698  156.2434 C.ar    1  UNL1        0.0800
     12 C         138.5751  142.8111  157.1807 C.ar    1  UNL1        0.2636
     13 O         139.3924  144.0278  156.8621 O.2     1  UNL1       -0.2669
     14 N         138.8425  142.0357  158.4365 N.ar    1  UNL1       -0.2786
     15 C         139.9274  142.4770  159.3738 C.3     1  UNL1        0.1350
     16 C         138.0252  140.8189  158.7551 C.ar    1  UNL1        0.1462
     17 N         136.9404  140.3776  157.8179 N.ar    1  UNL1       -0.2233
     18 C         136.6729  141.1530  156.5620 C.ar    1  UNL1        0.1405
     19 C         133.4488  139.6400  156.6372 C.3     1  UNL1        0.2543
     20 O         134.7708  139.4949  155.9434 O.3     1  UNL1       -0.4551
     21 O         139.0953  137.7173  163.7786 O.3     1  UNL1       -0.4791
     22 C         139.3246  138.4409  165.0723 C.3     1  UNL1        0.1687
     23 C         138.2320  138.5081  166.0979 C.3     1  UNL1        0.0609
     24 C         138.4613  139.2318  167.3917 C.3     1  UNL1        0.0758
     25 N         139.7831  139.8883  167.6598 N.3     1  UNL1       -0.2737
     26 C         140.8756  139.8210  166.6342 C.3     1  UNL1        0.0758
     27 C         140.6464  139.0974  165.3405 C.3     1  UNL1        0.0609
     28 C         140.0124  140.6119  168.9535 C.3     1  UNL1        0.0575
     29 C         140.0505  140.2138  170.3993 C.3     1  UNL1        0.0160
     30 C         140.3367  141.6354  170.7831 C.3     1  UNL1        0.0028
     31 C         140.2986  142.0334  169.3375 C.3     1  UNL1        0.0160
@<TRIPOS>BOND
     1    19    20    1
     2    20     7    1
     3     7     8   ar
     4     8     9   ar
     5     9    10   ar
     6    10    11   ar
     7    11    12   ar
     8    12    13    2
     9    12    14   ar
    10    14    15    1
    11    14    16   ar
    12    16     1    1
    13     1     2   ar
    14     2     3   ar
    15     3     4   ar
    16     4    21    1
    17    21    22    1
    18    22    23    1
    19    23    24    1
    20    24    25    1
    21    25    28    1
    22    28    29    1
    23    29    30    1
    24    30    31    1
    25    25    26    1
    26    26    27    1
    27     4     5   ar
    28     5     6   ar
    29    16    17   ar
    30    17    18   ar
    31    18     7   ar
    32    18    11   ar
    33     6     1   ar
    34    27    22    1
    35    31    28    1
@<TRIPOS>MOLECULE
*****
 31 35 0 0 0
SMALL
GASTEIGER

@<TRIPOS>ATOM
      1 C         139.3946  139.1029  159.7688 C.ar    1  UNL1        0.0344
      2 C         139.0806  140.5604  159.9334 C.ar    1  UNL1        0.0061
      3 C         138.4602  141.0549  161.2064 C.ar    1  UNL1        0.0370
      4 C         138.1537  140.0918  162.3148 C.ar    1  UNL1        0.1384
      5 C         138.4677  138.6343  162.1502 C.ar    1  UNL1        0.0370
      6 C         139.0881  138.1398  160.8772 C.ar    1  UNL1        0.0061
      7 C         138.8909  137.2629  154.9355 C.ar    1  UNL1        0.2434
      8 N         139.5114  136.7685  153.6625 N.ar    1  UNL1       -0.2088
      9 C         141.0043  136.6996  153.5332 C.ar    1  UNL1        0.1023
     10 C         141.8766  137.1251  154.6768 C.ar    1  UNL1        0.0271
     11 C         141.2561  137.6195  155.9498 C.ar    1  UNL1        0.0800
     12 C         142.1284  138.0451  157.0935 C.ar    1  UNL1        0.2636
     13 O         143.6212  137.9762  156.9642 O.2     1  UNL1       -0.2669
     14 N         141.5079  138.5395  158.3664 N.ar    1  UNL1       -0.2786
     15 C         142.3803  138.9651  159.5102 C.3     1  UNL1        0.1350
     16 C         140.0151  138.6084  158.4958 C.ar    1  UNL1        0.1462
     17 N         139.1428  138.1829  157.3522 N.ar    1  UNL1       -0.2233
     18 C         139.7633  137.6884  156.0791 C.ar    1  UNL1        0.1405
     19 C         136.6101  138.2499  154.1783 C.3     1  UNL1        0.2543
     20 O         137.3981  137.3318  155.0648 O.3     1  UNL1       -0.4551
     21 O         137.5332  140.5863  163.5878 O.3     1  UNL1       -0.4791
     22 C         138.2890  140.4844  164.8795 C.3     1  UNL1        0.1687
     23 C         138.0084  139.3546  165.8255 C.3     1  UNL1        0.0609
     24 C         138.7642  139.2527  167.1171 C.3     1  UNL1        0.0758
     25 N         139.8006  140.2806  167.4628 N.3     1  UNL1       -0.2737
     26 C         140.0811  141.4104  166.5168 C.3     1  UNL1        0.0758
     27 C         139.3253  141.5123  165.2251 C.3     1  UNL1        0.0609
     28 C         140.5564  140.1787  168.7544 C.3     1  UNL1        0.0575
     29 C         140.2514  140.4917  170.1894 C.3     1  UNL1        0.0160
     30 C         141.6253  140.0347  170.5811 C.3     1  UNL1        0.0028
     31 C         141.9303  139.7217  169.1463 C.3     1  UNL1        0.0160
@<TRIPOS>BOND
     1    19    20    1
     2    20     7    1
     3     7     8   ar
     4     8     9   ar
     5     9    10   ar
     6    10    11   ar
     7    11    12   ar
     8    12    13    2
     9    12    14   ar
    10    14    15    1
    11    14    16   ar
    12    16     1    1
    13     1     2   ar
    14     2     3   ar
    15     3     4   ar
    16     4    21    1
    17    21    22    1
    18    22    23    1
    19    23    24    1
    20    24    25    1
    21    25    28    1
    22    28    29    1
    23    29    30    1
    24    30    31    1
    25    25    26    1
    26    26    27    1
    27     4     5   ar
    28     5     6   ar
    29    16    17   ar
    30    17    18   ar
    31    18     7   ar
    32    18    11   ar
    33     6     1   ar
    34    27    22    1
    35    31    28    1
@<TRIPOS>MOLECULE
*****
 31 35 0 0 0
SMALL
GASTEIGER

@<TRIPOS>ATOM
      1 C         140.4217  139.3030  159.5247 C.ar    1  UNL1        0.0344
      2 C         139.5433  138.7381  158.4480 C.ar    1  UNL1        0.0061
      3 C         140.1469  137.9456  157.3266 C.ar    1  UNL1        0.0370
      4 C         141.6289  137.7181  157.2819 C.ar    1  UNL1        0.1384
      5 C         142.5072  138.2830  158.3587 C.ar    1  UNL1        0.0370
      6 C         141.9036  139.0754  159.4801 C.ar    1  UNL1        0.0061
      7 C         138.9800  143.8701  161.5405 C.ar    1  UNL1        0.2434
      8 N         138.3764  144.6625  162.6619 N.ar    1  UNL1       -0.2088
      9 C         137.8899  143.9639  163.8969 C.ar    1  UNL1        0.1023
     10 C         138.0070  142.4728  164.0105 C.ar    1  UNL1        0.0271
     11 C         138.6107  141.6804  162.8891 C.ar    1  UNL1        0.0800
     12 C         138.7279  140.1893  163.0026 C.ar    1  UNL1        0.2636
     13 O         138.2414  139.4906  164.2376 O.2     1  UNL1       -0.2669
     14 N         139.3315  139.3968  161.8812 N.ar    1  UNL1       -0.2786
     15 C         139.4487  137.9057  161.9947 C.3     1  UNL1        0.1350
     16 C         139.8180  140.0955  160.6462 C.ar    1  UNL1        0.1462
     17 N         139.7008  141.5866  160.5326 N.ar    1  UNL1       -0.2233
     18 C         139.0972  142.3791  161.6541 C.ar    1  UNL1        0.1405
     19 C         140.8582  145.1265  160.2583 C.3     1  UNL1        0.2543
     20 O         139.4665  144.5688  160.3055 O.3     1  UNL1       -0.4551
     21 O         142.2325  136.9256  156.1604 O.3     1  UNL1       -0.4791
     22 C         142.3728  135.4373  156.2845 C.3     1  UNL1        0.1687
     23 C         143.3630  134.8551  157.2493 C.3     1  UNL1        0.0609
     24 C         143.5033  133.3669  157.3734 C.3     1  UNL1        0.0758
     25 N         142.6534  132.4608  156.5327 N.3     1  UNL1       -0.2737
     26 C         141.6633  133.0429  155.5679 C.3     1  UNL1        0.0758
     27 C         141.5230  134.5312  155.4439 C.3     1  UNL1        0.0609
     28 C         142.7937  130.9725  156.6567 C.3     1  UNL1        0.0575
     29 C         142.3081  129.7920  155.8688 C.3     1  UNL1        0.0160
     30 C         142.9920  128.8678  156.8322 C.3     1  UNL1        0.0028
     31 C         143.4775  130.0482  157.6200 C.3     1  UNL1        0.0160
@<TRIPOS>BOND
     1    19    20    1
     2    20     7    1
     3     7     8   ar
     4     8     9   ar
     5     9    10   ar
     6    10    11   ar
     7    11    12   ar
     8    12    13    2
     9    12    14   ar
    10    14    15    1
    11    14    16   ar
    12    16     1    1
    13     1     2   ar
    14     2     3   ar
    15     3     4   ar
    16     4    21    1
    17    21    22    1
    18    22    23    1
    19    23    24    1
    20    24    25    1
    21    25    28    1
    22    28    29    1
    23    29    30    1
    24    30    31    1
    25    25    26    1
    26    26    27    1
    27     4     5   ar
    28     5     6   ar
    29    16    17   ar
    30    17    18   ar
    31    18     7   ar
    32    18    11   ar
    33     6     1   ar
    34    27    22    1
    35    31    28    1
@<TRIPOS>MOLECULE
*****
 31 35 0 0 0
SMALL
GASTEIGER

@<TRIPOS>ATOM
      1 C         142.5286  142.5454  163.8657 C.ar    1  UNL1        0.0344
      2 C         142.1240  143.9006  163.3658 C.ar    1  UNL1        0.0061
      3 C         142.3722  144.2771  161.9352 C.ar    1  UNL1        0.0370
      4 C         143.0249  143.2985  161.0046 C.ar    1  UNL1        0.1384
      5 C         143.4295  141.9433  161.5045 C.ar    1  UNL1        0.0370
      6 C         143.1814  141.5668  162.9350 C.ar    1  UNL1        0.0061
      7 C         139.6142  140.1725  167.4540 C.ar    1  UNL1        0.2434
      8 N         139.3660  139.7960  168.8846 N.ar    1  UNL1       -0.2088
      9 C         140.3269  140.2295  169.9517 C.ar    1  UNL1        0.1023
     10 C         141.5360  141.0395  169.5882 C.ar    1  UNL1        0.0271
     11 C         141.7841  141.4159  168.1576 C.ar    1  UNL1        0.0800
     12 C         142.9932  142.2259  167.7941 C.ar    1  UNL1        0.2636
     13 O         143.9541  142.6594  168.8612 O.2     1  UNL1       -0.2669
     14 N         143.2413  142.6024  166.3635 N.ar    1  UNL1       -0.2786
     15 C         144.4504  143.4124  166.0000 C.3     1  UNL1        0.1350
     16 C         142.2804  142.1689  165.2964 C.ar    1  UNL1        0.1462
     17 N         141.0714  141.3590  165.6598 N.ar    1  UNL1       -0.2233
     18 C         140.8232  140.9824  167.0905 C.ar    1  UNL1        0.1405
     19 C         137.8818  138.4625  166.5459 C.3     1  UNL1        0.2543
     20 O         138.6533  139.7390  166.3869 O.3     1  UNL1       -0.4551
     21 O         143.2731  143.6750  159.5739 O.3     1  UNL1       -0.4791
     22 C         142.1185  143.8399  158.6306 C.3     1  UNL1        0.1687
     23 C         141.6168  145.2124  158.2921 C.3     1  UNL1        0.0609
     24 C         140.4622  145.3774  157.3489 C.3     1  UNL1        0.0758
     25 N         139.8093  144.1698  156.7442 N.3     1  UNL1       -0.2737
     26 C         140.3111  142.7974  157.0827 C.3     1  UNL1        0.0758
     27 C         141.4657  142.6324  158.0259 C.3     1  UNL1        0.0609
     28 C         138.6547  144.3347  155.8009 C.3     1  UNL1        0.0575
     29 C         137.6462  143.4096  155.1869 C.3     1  UNL1        0.0160
     30 C         137.0219  144.5680  154.4670 C.3     1  UNL1        0.0028
     31 C         138.0304  145.4931  155.0810 C.3     1  UNL1        0.0160
@<TRIPOS>BOND
     1    19    20    1
     2    20     7    1
     3     7     8   ar
     4     8     9   ar
     5     9    10   ar
     6    10    11   ar
     7    11    12   ar
     8    12    13    2
     9    12    14   ar
    10    14    15    1
    11    14    16   ar
    12    16     1    1
    13     1     2   ar
    14     2     3   ar
    15     3     4   ar
    16     4    21    1
    17    21    22    1
    18    22    23    1
    19    23    24    1
    20    24    25    1
    21    25    28    1
    22    28    29    1
    23    29    30    1
    24    30    31    1
    25    25    26    1
    26    26    27    1
    27     4     5   ar
    28     5     6   ar
    29    16    17   ar
    30    17    18   ar
    31    18     7   ar
    32    18    11   ar
    33     6     1   ar
    34    27    22    1
    35    31    28    1
@<TRIPOS>MOLECULE
*****
 31 35 0 0 0
SMALL
GASTEIGER

@<TRIPOS>ATOM
      1 C         141.7315  138.9615  161.3867 C.ar    1  UNL1        0.0344
      2 C         142.6757  137.7992  161.2993 C.ar    1  UNL1        0.0061
      3 C         143.1520  137.3190  159.9605 C.ar    1  UNL1        0.0370
      4 C         142.6843  138.0010  158.7092 C.ar    1  UNL1        0.1384
      5 C         141.7401  139.1633  158.7966 C.ar    1  UNL1        0.0370
      6 C         141.2637  139.6436  160.1354 C.ar    1  UNL1        0.0061
      7 C         142.3678  141.9686  165.5764 C.ar    1  UNL1        0.2434
      8 N         141.8913  142.4488  166.9151 N.ar    1  UNL1       -0.2088
      9 C         140.6204  141.9057  167.4980 C.ar    1  UNL1        0.1023
     10 C         139.8259  140.8823  166.7421 C.ar    1  UNL1        0.0271
     11 C         140.3023  140.4022  165.4033 C.ar    1  UNL1        0.0800
     12 C         139.5077  139.3788  164.6472 C.ar    1  UNL1        0.2636
     13 O         138.2368  138.8357  165.2301 O.2     1  UNL1       -0.2669
     14 N         139.9841  138.8986  163.3084 N.ar    1  UNL1       -0.2786
     15 C         139.1896  137.8752  162.5524 C.3     1  UNL1        0.1350
     16 C         141.2551  139.4418  162.7256 C.ar    1  UNL1        0.1462
     17 N         142.0496  140.4651  163.4815 N.ar    1  UNL1       -0.2233
     18 C         141.5732  140.9453  164.8204 C.ar    1  UNL1        0.1405
     19 C         143.6387  143.8446  164.3053 C.3     1  UNL1        0.2543
     20 O         143.6387  142.5118  164.9935 O.3     1  UNL1       -0.4551
     21 O         143.1607  137.5208  157.3703 O.3     1  UNL1       -0.4791
     22 C         142.7919  136.1481  156.8912 C.3     1  UNL1        0.1687
     23 C         143.4911  134.9451  157.4516 C.3     1  UNL1        0.0609
     24 C         143.1223  133.5723  156.9725 C.3     1  UNL1        0.0758
     25 N         142.0542  133.4026  155.9330 N.3     1  UNL1       -0.2737
     26 C         141.3551  134.6055  155.3726 C.3     1  UNL1        0.0758
     27 C         141.7239  135.9783  155.8517 C.3     1  UNL1        0.0609
     28 C         141.6854  132.0298  155.4539 C.3     1  UNL1        0.0575
     29 C         142.2486  130.6527  155.6452 C.3     1  UNL1        0.0160
     30 C         141.1638  130.0885  154.7763 C.3     1  UNL1        0.0028
     31 C         140.6007  131.4655  154.5850 C.3     1  UNL1        0.0160
@<TRIPOS>BOND
     1    19    20    1
     2    20     7    1
     3     7     8   ar
     4     8     9   ar
     5     9    10   ar
     6    10    11   ar
     7    11    12   ar
     8    12    13    2
     9    12    14   ar
    10    14    15    1
    11    14    16   ar
    12    16     1    1
    13     1     2   ar
    14     2     3   ar
    15     3     4   ar
    16     4    21    1
    17    21    22    1
    18    22    23    1
    19    23    24    1
    20    24    25    1
    21    25    28    1
    22    28    29    1
    23    29    30    1
    24    30    31    1
    25    25    26    1
    26    26    27    1
    27     4     5   ar
    28     5     6   ar
    29    16    17   ar
    30    17    18   ar
    31    18     7   ar
    32    18    11   ar
    33     6     1   ar
    34    27    22    1
    35    31    28    1
@<TRIPOS>MOLECULE
*****
 31 35 0 0 0
SMALL
GASTEIGER

@<TRIPOS>ATOM
      1 C         140.6021  138.7478  158.2947 C.ar    1  UNL1        0.0344
      2 C         139.7939  138.0631  157.2326 C.ar    1  UNL1        0.0061
      3 C         140.4456  137.0675  156.3193 C.ar    1  UNL1        0.0370
      4 C         141.9055  136.7568  156.4681 C.ar    1  UNL1        0.1384
      5 C         142.7137  137.4416  157.5301 C.ar    1  UNL1        0.0370
      6 C         142.0620  138.4371  158.4434 C.ar    1  UNL1        0.0061
      7 C         138.2357  139.8595  162.7852 C.ar    1  UNL1        0.2434
      8 N         137.5840  140.8550  163.6985 N.ar    1  UNL1       -0.2088
      9 C         137.4637  142.2904  163.2797 C.ar    1  UNL1        0.1023
     10 C         137.9951  142.7301  161.9478 C.ar    1  UNL1        0.0271
     11 C         138.6468  141.7346  161.0345 C.ar    1  UNL1        0.0800
     12 C         139.1783  142.1743  159.7025 C.ar    1  UNL1        0.2636
     13 O         139.0579  143.6097  159.2838 O.2     1  UNL1       -0.2669
     14 N         139.8300  141.1788  158.7893 N.ar    1  UNL1       -0.2786
     15 C         140.3614  141.6185  157.4572 C.3     1  UNL1        0.1350
     16 C         139.9503  139.7434  159.2080 C.ar    1  UNL1        0.1462
     17 N         139.4189  139.3036  160.5399 N.ar    1  UNL1       -0.2233
     18 C         138.7671  140.2992  161.4533 C.ar    1  UNL1        0.1405
     19 C         139.5726  137.9595  163.9483 C.3     1  UNL1        0.2543
     20 O         138.3561  138.4241  163.2039 O.3     1  UNL1       -0.4551
     21 O         142.5573  135.7612  155.5547 O.3     1  UNL1       -0.4791
     22 C         142.7855  134.3536  156.0202 C.3     1  UNL1        0.1687
     23 C         143.8891  134.0544  156.9912 C.3     1  UNL1        0.0609
     24 C         144.1173  132.6469  157.4567 C.3     1  UNL1        0.0758
     25 N         143.2421  131.5385  156.9511 N.3     1  UNL1       -0.2737
     26 C         142.1386  131.8377  155.9802 C.3     1  UNL1        0.0758
     27 C         141.9104  133.2453  155.5147 C.3     1  UNL1        0.0609
     28 C         143.4703  130.1309  157.4166 C.3     1  UNL1        0.0575
     29 C         142.9971  128.7778  156.9748 C.3     1  UNL1        0.0160
     30 C         143.7931  128.1404  158.0749 C.3     1  UNL1        0.0028
     31 C         144.2663  129.4934  158.5166 C.3     1  UNL1        0.0160
@<TRIPOS>BOND
     1    19    20    1
     2    20     7    1
     3     7     8   ar
     4     8     9   ar
     5     9    10   ar
     6    10    11   ar
     7    11    12   ar
     8    12    13    2
     9    12    14   ar
    10    14    15    1
    11    14    16   ar
    12    16     1    1
    13     1     2   ar
    14     2     3   ar
    15     3     4   ar
    16     4    21    1
    17    21    22    1
    18    22    23    1
    19    23    24    1
    20    24    25    1
    21    25    28    1
    22    28    29    1
    23    29    30    1
    24    30    31    1
    25    25    26    1
    26    26    27    1
    27     4     5   ar
    28     5     6   ar
    29    16    17   ar
    30    17    18   ar
    31    18     7   ar
    32    18    11   ar
    33     6     1   ar
    34    27    22    1
    35    31    28    1
@<TRIPOS>MOLECULE
*****
 31 35 0 0 0
SMALL
GASTEIGER

@<TRIPOS>ATOM
      1 C         141.6499  139.4621  163.6111 C.ar    1  UNL1        0.0344
      2 C         141.4110  140.4743  162.5302 C.ar    1  UNL1        0.0061
      3 C         142.1041  140.3365  161.2071 C.ar    1  UNL1        0.0370
      4 C         143.0360  139.1864  160.9649 C.ar    1  UNL1        0.1384
      5 C         143.2749  138.1741  162.0457 C.ar    1  UNL1        0.0370
      6 C         142.5818  138.3120  163.3688 C.ar    1  UNL1        0.0061
      7 C         141.6222  141.1626  168.5210 C.ar    1  UNL1        0.2434
      8 N         140.9291  141.3004  169.8441 N.ar    1  UNL1       -0.2088
      9 C         139.5567  140.7259  170.0353 C.ar    1  UNL1        0.1023
     10 C         138.8775  140.0135  168.9035 C.ar    1  UNL1        0.0271
     11 C         139.5706  139.8757  167.5804 C.ar    1  UNL1        0.0800
     12 C         138.8914  139.1632  166.4485 C.ar    1  UNL1        0.2636
     13 O         137.5190  138.5887  166.6398 O.2     1  UNL1       -0.2669
     14 N         139.5845  139.0254  165.1255 N.ar    1  UNL1       -0.2786
     15 C         138.9052  138.3130  163.9935 C.3     1  UNL1        0.1350
     16 C         140.9568  139.5999  164.9342 C.ar    1  UNL1        0.1462
     17 N         141.6360  140.3123  166.0661 N.ar    1  UNL1       -0.2233
     18 C         140.9429  140.4502  167.3892 C.ar    1  UNL1        0.1405
     19 C         143.7396  142.3053  169.5011 C.3     1  UNL1        0.2543
     20 O         142.9945  141.7372  168.3298 O.3     1  UNL1       -0.4551
     21 O         143.7291  139.0485  159.6417 O.3     1  UNL1       -0.4791
     22 C         142.9335  138.7487  158.4059 C.3     1  UNL1        0.1687
     23 C         142.5749  137.3313  158.0704 C.3     1  UNL1        0.0609
     24 C         141.7793  137.0315  156.8346 C.3     1  UNL1        0.0758
     25 N         141.3423  138.1490  155.9344 N.3     1  UNL1       -0.2737
     26 C         141.7009  139.5663  156.2700 C.3     1  UNL1        0.0758
     27 C         142.4965  139.8661  157.5058 C.3     1  UNL1        0.0609
     28 C         140.5467  137.8491  154.6987 C.3     1  UNL1        0.0575
     29 C         140.7012  138.1532  153.2379 C.3     1  UNL1        0.0160
     30 C         139.4215  137.4251  152.9511 C.3     1  UNL1        0.0028
     31 C         139.2670  137.1210  154.4117 C.3     1  UNL1        0.0160
@<TRIPOS>BOND
     1    19    20    1
     2    20     7    1
     3     7     8   ar
     4     8     9   ar
     5     9    10   ar
     6    10    11   ar
     7    11    12   ar
     8    12    13    2
     9    12    14   ar
    10    14    15    1
    11    14    16   ar
    12    16     1    1
    13     1     2   ar
    14     2     3   ar
    15     3     4   ar
    16     4    21    1
    17    21    22    1
    18    22    23    1
    19    23    24    1
    20    24    25    1
    21    25    28    1
    22    28    29    1
    23    29    30    1
    24    30    31    1
    25    25    26    1
    26    26    27    1
    27     4     5   ar
    28     5     6   ar
    29    16    17   ar
    30    17    18   ar
    31    18     7   ar
    32    18    11   ar
    33     6     1   ar
    34    27    22    1
    35    31    28    1
@<TRIPOS>MOLECULE
*****
 31 35 0 0 0
SMALL
GASTEIGER

@<TRIPOS>ATOM
      1 C         142.6409  140.0988  158.6264 C.ar    1  UNL1        0.0344
      2 C         143.5514  140.0240  157.4367 C.ar    1  UNL1        0.0061
      3 C         143.3733  138.9324  156.4234 C.ar    1  UNL1        0.0370
      4 C         142.2847  137.9157  156.5998 C.ar    1  UNL1        0.1384
      5 C         141.3742  137.9905  157.7895 C.ar    1  UNL1        0.0370
      6 C         141.5523  139.0821  158.8028 C.ar    1  UNL1        0.0061
      7 C         144.5976  141.7744  163.1390 C.ar    1  UNL1        0.2434
      8 N         144.7757  142.8660  164.1522 N.ar    1  UNL1       -0.2088
      9 C         144.1536  144.2114  163.9224 C.ar    1  UNL1        0.1023
     10 C         143.3534  144.4652  162.6794 C.ar    1  UNL1        0.0271
     11 C         143.1753  143.3737  161.6662 C.ar    1  UNL1        0.0800
     12 C         142.3750  143.6275  160.4230 C.ar    1  UNL1        0.2636
     13 O         141.7529  144.9729  160.1932 O.2     1  UNL1       -0.2669
     14 N         142.1969  142.5359  159.4098 N.ar    1  UNL1       -0.2786
     15 C         141.3967  142.7897  158.1667 C.3     1  UNL1        0.1350
     16 C         142.8190  141.1904  159.6397 C.ar    1  UNL1        0.1462
     17 N         143.6192  140.9366  160.8827 N.ar    1  UNL1       -0.2233
     18 C         143.7974  142.0282  161.8960 C.ar    1  UNL1        0.1405
     19 C         144.6480  139.5051  164.4031 C.3     1  UNL1        0.2543
     20 O         145.2197  140.4290  163.3689 O.3     1  UNL1       -0.4551
     21 O         142.1065  136.8241  155.5865 O.3     1  UNL1       -0.4791
     22 C         142.4411  135.4064  155.9447 C.3     1  UNL1        0.1687
     23 C         143.5560  135.1189  156.9062 C.3     1  UNL1        0.0609
     24 C         143.8905  133.7012  157.2644 C.3     1  UNL1        0.0758
     25 N         143.1101  132.5711  156.6611 N.3     1  UNL1       -0.2737
     26 C         141.9953  132.8586  155.6997 C.3     1  UNL1        0.0758
     27 C         141.6607  134.2763  155.3415 C.3     1  UNL1        0.0609
     28 C         143.4446  131.1534  157.0194 C.3     1  UNL1        0.0575
     29 C         144.3922  130.4973  157.9795 C.3     1  UNL1        0.0160
     30 C         143.9177  129.1485  157.5259 C.3     1  UNL1        0.0028
     31 C         142.9702  129.8046  156.5659 C.3     1  UNL1        0.0160
@<TRIPOS>BOND
     1    19    20    1
     2    20     7    1
     3     7     8   ar
     4     8     9   ar
     5     9    10   ar
     6    10    11   ar
     7    11    12   ar
     8    12    13    2
     9    12    14   ar
    10    14    15    1
    11    14    16   ar
    12    16     1    1
    13     1     2   ar
    14     2     3   ar
    15     3     4   ar
    16     4    21    1
    17    21    22    1
    18    22    23    1
    19    23    24    1
    20    24    25    1
    21    25    28    1
    22    28    29    1
    23    29    30    1
    24    30    31    1
    25    25    26    1
    26    26    27    1
    27     4     5   ar
    28     5     6   ar
    29    16    17   ar
    30    17    18   ar
    31    18     7   ar
    32    18    11   ar
    33     6     1   ar
    34    27    22    1
    35    31    28    1
@<TRIPOS>MOLECULE
*****
 31 35 0 0 0
SMALL
GASTEIGER

@<TRIPOS>ATOM
      1 C         143.0541  140.6386  162.1964 C.ar    1  UNL1        0.0344
      2 C         144.0019  139.5370  161.8245 C.ar    1  UNL1        0.0061
      3 C         144.1867  139.1610  160.3843 C.ar    1  UNL1        0.0370
      4 C         143.4238  139.8865  159.3159 C.ar    1  UNL1        0.1384
      5 C         142.4760  140.9881  159.6877 C.ar    1  UNL1        0.0370
      6 C         142.2912  141.3641  161.1280 C.ar    1  UNL1        0.0061
      7 C         140.5578  140.0520  166.7158 C.ar    1  UNL1        0.2434
      8 N         140.3731  140.4280  168.1561 N.ar    1  UNL1       -0.2088
      9 C         141.2516  141.4733  168.7770 C.ar    1  UNL1        0.1023
     10 C         142.3148  142.1426  167.9576 C.ar    1  UNL1        0.0271
     11 C         142.4996  141.7666  166.5173 C.ar    1  UNL1        0.0800
     12 C         143.5630  142.4359  165.6979 C.ar    1  UNL1        0.2636
     13 O         144.4415  143.4813  166.3188 O.2     1  UNL1       -0.2669
     14 N         143.7477  142.0599  164.2576 N.ar    1  UNL1       -0.2786
     15 C         144.8111  142.7292  163.4382 C.3     1  UNL1        0.1350
     16 C         142.8692  141.0146  163.6367 C.ar    1  UNL1        0.1462
     17 N         141.8060  140.3453  164.4561 N.ar    1  UNL1       -0.2233
     18 C         141.6211  140.7213  165.8964 C.ar    1  UNL1        0.1405
     19 C         138.1900  139.1846  166.0906 C.3     1  UNL1        0.2543
     20 O         139.6793  139.0066  166.0949 O.3     1  UNL1       -0.4551
     21 O         143.6086  139.5105  157.8755 O.3     1  UNL1       -0.4791
     22 C         144.5453  140.2988  157.0089 C.3     1  UNL1        0.1687
     23 C         145.1691  141.5590  157.5313 C.3     1  UNL1        0.0609
     24 C         146.1058  142.3474  156.6646 C.3     1  UNL1        0.0758
     25 N         146.4187  141.8756  155.2755 N.3     1  UNL1       -0.2737
     26 C         145.7949  140.6154  154.7532 C.3     1  UNL1        0.0758
     27 C         144.8582  139.8271  155.6198 C.3     1  UNL1        0.0609
     28 C         147.3554  142.6639  154.4089 C.3     1  UNL1        0.0575
     29 C         148.6412  142.3693  153.6947 C.3     1  UNL1        0.0160
     30 C         148.6800  143.7788  153.1832 C.3     1  UNL1        0.0028
     31 C         147.3943  144.0734  153.8973 C.3     1  UNL1        0.0160
@<TRIPOS>BOND
     1    19    20    1
     2    20     7    1
     3     7     8   ar
     4     8     9   ar
     5     9    10   ar
     6    10    11   ar
     7    11    12   ar
     8    12    13    2
     9    12    14   ar
    10    14    15    1
    11    14    16   ar
    12    16     1    1
    13     1     2   ar
    14     2     3   ar
    15     3     4   ar
    16     4    21    1
    17    21    22    1
    18    22    23    1
    19    23    24    1
    20    24    25    1
    21    25    28    1
    22    28    29    1
    23    29    30    1
    24    30    31    1
    25    25    26    1
    26    26    27    1
    27     4     5   ar
    28     5     6   ar
    29    16    17   ar
    30    17    18   ar
    31    18     7   ar
    32    18    11   ar
    33     6     1   ar
    34    27    22    1
    35    31    28    1
