@<TRIPOS>MOLECULE
*****
 32 36 0 0 0
SMALL
GASTEIGER

@<TRIPOS>ATOM
      1 N         138.7812  141.8519  164.1579 N.pl3   1  UNL1       -0.3076
      2 C         137.5660  142.7083  164.3575 C.3     1  UNL1        0.0909
      3 C         137.9131  144.1086  163.9469 C.3     1  UNL1        0.0245
      4 C         139.3429  144.1177  163.4934 C.3     1  UNL1        0.0372
      5 C         140.4412  144.9887  162.9594 C.3     1  UNL1        0.0738
      6 N         141.6563  144.1323  162.7597 N.3     1  UNL1       -0.2712
      7 C         141.3092  142.7321  163.1703 C.3     1  UNL1        0.0921
      8 C         139.8794  142.7230  163.6238 C.3     1  UNL1        0.0901
      9 C         139.7426  138.0187  163.7946 C.ar    1  UNL1        0.1400
     10 C         139.0798  137.4437  165.0112 C.ar    1  UNL1        0.0370
     11 C         138.3175  138.3380  165.9434 C.ar    1  UNL1        0.0044
     12 C         138.2180  139.8075  165.6589 C.ar    1  UNL1        0.0147
     13 C         138.8807  140.3825  164.4423 C.ar    1  UNL1        0.0509
     14 C         139.6430  139.4881  163.5101 C.ar    1  UNL1        0.0514
     15 C         141.7220  137.6415  162.1547 C.3     1  UNL1        0.2525
     16 O         140.5049  137.1243  162.8625 O.3     1  UNL1       -0.4714
     17 C         142.9854  144.5950  162.2406 C.3     1  UNL1        0.0731
     18 C         144.2459  143.9289  162.7067 C.3     1  UNL1        0.0294
     19 C         144.5045  142.4912  162.3660 C.3     1  UNL1        0.0666
     20 S         145.2540  141.6159  163.3265 S.3     1  UNL1       -0.0756
     21 C         144.5036  140.7185  164.2655 C.ar    1  UNL1        0.1933
     22 N         144.3180  139.2381  164.1109 N.ar    1  UNL1       -0.1221
     23 N         143.5069  138.7486  165.2738 N.ar    1  UNL1       -0.1266
     24 C         143.1912  139.9266  166.1472 C.ar    1  UNL1        0.1862
     25 N         143.8072  141.1440  165.5241 N.ar    1  UNL1       -0.2872
     26 C         143.7388  142.5416  166.0646 C.3     1  UNL1        0.1340
     27 C         142.3986  139.8930  167.4203 C.ar    1  UNL1        0.1362
     28 C         141.0289  140.5024  167.4673 C.ar    1  UNL1        0.1211
     29 N         140.2363  140.4688  168.7404 N.ar    1  UNL1       -0.2390
     30 C         140.8135  139.8257  169.9665 C.ar    1  UNL1        0.1195
     31 C         142.1833  139.2162  169.9195 C.ar    1  UNL1        0.1196
     32 N         142.9759  139.2498  168.6464 N.ar    1  UNL1       -0.2375
@<TRIPOS>BOND
     1    15    16    1
     2    16     9    1
     3     9    10   ar
     4    10    11   ar
     5    11    12   ar
     6    12    13   ar
     7    13     1    1
     8     1     2    1
     9     2     3    1
    10     3     4    1
    11     4     5    1
    12     5     6    1
    13     6    17    1
    14    17    18    1
    15    18    19    1
    16    19    20    1
    17    20    21    1
    18    21    22   ar
    19    22    23   ar
    20    23    24   ar
    21    24    27    1
    22    27    28   ar
    23    28    29   ar
    24    29    30   ar
    25    30    31   ar
    26    31    32   ar
    27    24    25   ar
    28    25    26    1
    29     6     7    1
    30     7     8    1
    31    13    14   ar
    32    14     9   ar
    33     8     1    1
    34     8     4    1
    35    25    21   ar
    36    32    27   ar
@<TRIPOS>MOLECULE
*****
 32 36 0 0 0
SMALL
GASTEIGER

@<TRIPOS>ATOM
      1 N         142.7221  143.4051  163.9063 N.pl3   1  UNL1       -0.3076
      2 C         143.8630  144.0410  164.6438 C.3     1  UNL1        0.0909
      3 C         144.9523  143.0191  164.7825 C.3     1  UNL1        0.0245
      4 C         144.4847  141.7517  164.1307 C.3     1  UNL1        0.0372
      5 C         144.8688  140.3368  163.8135 C.3     1  UNL1        0.0738
      6 N         143.7279  139.7010  163.0760 N.3     1  UNL1       -0.2712
      7 C         142.6386  140.7227  162.9373 C.3     1  UNL1        0.0921
      8 C         143.1063  141.9902  163.5891 C.3     1  UNL1        0.0901
      9 C         139.9308  145.3023  161.8184 C.ar    1  UNL1        0.1400
     10 C         138.8301  145.3929  162.8334 C.ar    1  UNL1        0.0370
     11 C         139.0267  144.8208  164.2060 C.ar    1  UNL1        0.0044
     12 C         140.3241  144.1582  164.5636 C.ar    1  UNL1        0.0147
     13 C         141.4248  144.0677  163.5486 C.ar    1  UNL1        0.0509
     14 C         141.2282  144.6397  162.1760 C.ar    1  UNL1        0.0514
     15 C         140.4552  145.2769  159.2740 C.3     1  UNL1        0.2525
     16 O         139.7342  145.8743  160.4458 O.3     1  UNL1       -0.4714
     17 C         143.6840  138.2908  162.5666 C.3     1  UNL1        0.0731
     18 C         142.4918  137.8091  161.7944 C.3     1  UNL1        0.0294
     19 C         141.1733  137.6276  162.4863 C.3     1  UNL1        0.0666
     20 S         141.1329  137.3112  163.9521 S.3     1  UNL1       -0.0756
     21 C         140.3361  138.1752  164.8841 C.ar    1  UNL1        0.1933
     22 N         138.8440  138.3282  164.8857 N.ar    1  UNL1       -0.1221
     23 N         138.4773  139.2855  165.9808 N.ar    1  UNL1       -0.1266
     24 C         139.7429  139.7242  166.6560 C.ar    1  UNL1        0.1862
     25 N         140.8917  139.0380  165.9782 N.ar    1  UNL1       -0.2872
     26 C         142.3415  139.1882  166.3323 C.3     1  UNL1        0.1340
     27 C         139.8423  140.6810  167.8069 C.ar    1  UNL1        0.1362
     28 C         139.3388  140.2796  169.1616 C.ar    1  UNL1        0.1211
     29 N         139.4382  141.2365  170.3125 N.ar    1  UNL1       -0.2390
     30 C         140.0410  142.5948  170.1086 C.ar    1  UNL1        0.1195
     31 C         140.5445  142.9963  168.7538 C.ar    1  UNL1        0.1196
     32 N         140.4451  142.0395  167.6029 N.ar    1  UNL1       -0.2375
@<TRIPOS>BOND
     1    15    16    1
     2    16     9    1
     3     9    10   ar
     4    10    11   ar
     5    11    12   ar
     6    12    13   ar
     7    13     1    1
     8     1     2    1
     9     2     3    1
    10     3     4    1
    11     4     5    1
    12     5     6    1
    13     6    17    1
    14    17    18    1
    15    18    19    1
    16    19    20    1
    17    20    21    1
    18    21    22   ar
    19    22    23   ar
    20    23    24   ar
    21    24    27    1
    22    27    28   ar
    23    28    29   ar
    24    29    30   ar
    25    30    31   ar
    26    31    32   ar
    27    24    25   ar
    28    25    26    1
    29     6     7    1
    30     7     8    1
    31    13    14   ar
    32    14     9   ar
    33     8     1    1
    34     8     4    1
    35    25    21   ar
    36    32    27   ar
@<TRIPOS>MOLECULE
*****
 32 36 0 0 0
SMALL
GASTEIGER

@<TRIPOS>ATOM
      1 N         140.0080  143.6336  163.8605 N.pl3   1  UNL1       -0.3076
      2 C         139.0516  144.5013  164.6237 C.3     1  UNL1        0.0909
      3 C         137.6897  143.8787  164.5357 C.3     1  UNL1        0.0245
      4 C         137.8045  142.6263  163.7182 C.3     1  UNL1        0.0372
      5 C         137.0337  141.4675  163.1586 C.3     1  UNL1        0.0738
      6 N         137.9902  140.5999  162.3955 N.3     1  UNL1       -0.2712
      7 C         139.3520  141.2224  162.4834 C.3     1  UNL1        0.0921
      8 C         139.2373  142.4748  163.3009 C.3     1  UNL1        0.0901
      9 C         143.8563  143.0017  163.1249 C.ar    1  UNL1        0.1400
     10 C         144.4158  144.3766  163.3410 C.ar    1  UNL1        0.0370
     11 C         143.5060  145.5039  163.7302 C.ar    1  UNL1        0.0044
     12 C         142.0367  145.2561  163.9034 C.ar    1  UNL1        0.0147
     13 C         141.4772  143.8812  163.6873 C.ar    1  UNL1        0.0509
     14 C         142.3871  142.7540  163.2981 C.ar    1  UNL1        0.0514
     15 C         145.8425  141.4203  163.6766 C.3     1  UNL1        0.2525
     16 O         144.7662  141.8745  162.7357 O.3     1  UNL1       -0.4714
     17 C         137.6453  139.3322  161.6716 C.3     1  UNL1        0.0731
     18 C         138.5510  138.1409  161.7722 C.3     1  UNL1        0.0294
     19 C         138.7714  137.4762  163.0988 C.3     1  UNL1        0.0666
     20 S         140.0573  137.6910  163.8408 S.3     1  UNL1       -0.0756
     21 C         140.1073  138.6509  164.9924 C.ar    1  UNL1        0.1933
     22 N         138.9391  139.3884  165.5768 N.ar    1  UNL1       -0.1221
     23 N         139.4441  140.2351  166.7074 N.ar    1  UNL1       -0.1266
     24 C         140.9243  140.0209  166.8217 C.ar    1  UNL1        0.1862
     25 N         141.3341  139.0418  165.7618 N.ar    1  UNL1       -0.2872
     26 C         142.7265  138.5414  165.5146 C.3     1  UNL1        0.1340
     27 C         141.8348  140.6715  167.8205 C.ar    1  UNL1        0.1362
     28 C         142.5331  141.9533  167.4753 C.ar    1  UNL1        0.1211
     29 N         143.4437  142.6039  168.4742 N.ar    1  UNL1       -0.2390
     30 C         143.6558  141.9726  169.8183 C.ar    1  UNL1        0.1195
     31 C         142.9575  140.6908  170.1635 C.ar    1  UNL1        0.1196
     32 N         142.0470  140.0402  169.1647 N.ar    1  UNL1       -0.2375
@<TRIPOS>BOND
     1    15    16    1
     2    16     9    1
     3     9    10   ar
     4    10    11   ar
     5    11    12   ar
     6    12    13   ar
     7    13     1    1
     8     1     2    1
     9     2     3    1
    10     3     4    1
    11     4     5    1
    12     5     6    1
    13     6    17    1
    14    17    18    1
    15    18    19    1
    16    19    20    1
    17    20    21    1
    18    21    22   ar
    19    22    23   ar
    20    23    24   ar
    21    24    27    1
    22    27    28   ar
    23    28    29   ar
    24    29    30   ar
    25    30    31   ar
    26    31    32   ar
    27    24    25   ar
    28    25    26    1
    29     6     7    1
    30     7     8    1
    31    13    14   ar
    32    14     9   ar
    33     8     1    1
    34     8     4    1
    35    25    21   ar
    36    32    27   ar
@<TRIPOS>MOLECULE
*****
 32 36 0 0 0
SMALL
GASTEIGER

@<TRIPOS>ATOM
      1 N         143.1071  143.3831  161.7302 N.pl3   1  UNL1       -0.3076
      2 C         144.0945  144.2068  162.5025 C.3     1  UNL1        0.0909
      3 C         143.3457  144.9456  163.5718 C.3     1  UNL1        0.0245
      4 C         141.8956  144.5784  163.4605 C.3     1  UNL1        0.0372
      5 C         140.5367  144.8081  164.0525 C.3     1  UNL1        0.0738
      6 N         139.5494  143.9843  163.2802 N.3     1  UNL1       -0.2712
      7 C         140.2980  143.2456  162.2108 C.3     1  UNL1        0.0921
      8 C         141.7481  143.6127  162.3222 C.3     1  UNL1        0.0901
      9 C         143.8197  140.1063  159.6077 C.ar    1  UNL1        0.1400
     10 C         144.0552  140.6947  158.2482 C.ar    1  UNL1        0.0370
     11 C         143.9747  142.1793  158.0493 C.ar    1  UNL1        0.0044
     12 C         143.6586  143.0753  159.2100 C.ar    1  UNL1        0.0147
     13 C         143.4231  142.4869  160.5695 C.ar    1  UNL1        0.0509
     14 C         143.5037  141.0024  160.7684 C.ar    1  UNL1        0.0514
     15 C         142.7460  137.7485  159.4125 C.3     1  UNL1        0.2525
     16 O         143.9003  138.6217  159.8065 O.3     1  UNL1       -0.4714
     17 C         138.0726  143.9121  163.5329 C.3     1  UNL1        0.0731
     18 C         137.4843  142.7051  164.2014 C.3     1  UNL1        0.0294
     19 C         137.4232  141.3973  163.4693 C.3     1  UNL1        0.0666
     20 S         138.3215  140.2671  163.8766 S.3     1  UNL1       -0.0756
     21 C         138.5125  139.9471  165.3296 C.ar    1  UNL1        0.1933
     22 N         137.7100  138.9636  166.1287 N.ar    1  UNL1       -0.1221
     23 N         138.2411  138.9631  167.5316 N.ar    1  UNL1       -0.1266
     24 C         139.3718  139.9463  167.5995 C.ar    1  UNL1        0.1862
     25 N         139.5396  140.5545  166.2386 N.ar    1  UNL1       -0.2872
     26 C         140.5560  141.5885  165.8542 C.3     1  UNL1        0.1340
     27 C         140.1910  140.2654  168.8148 C.ar    1  UNL1        0.1362
     28 C         139.5737  141.0106  169.9609 C.ar    1  UNL1        0.1211
     29 N         140.3930  141.3297  171.1763 N.ar    1  UNL1       -0.2390
     30 C         141.8295  140.9036  171.2455 C.ar    1  UNL1        0.1195
     31 C         142.4468  140.1583  170.0994 C.ar    1  UNL1        0.1196
     32 N         141.6277  139.8392  168.8840 N.ar    1  UNL1       -0.2375
@<TRIPOS>BOND
     1    15    16    1
     2    16     9    1
     3     9    10   ar
     4    10    11   ar
     5    11    12   ar
     6    12    13   ar
     7    13     1    1
     8     1     2    1
     9     2     3    1
    10     3     4    1
    11     4     5    1
    12     5     6    1
    13     6    17    1
    14    17    18    1
    15    18    19    1
    16    19    20    1
    17    20    21    1
    18    21    22   ar
    19    22    23   ar
    20    23    24   ar
    21    24    27    1
    22    27    28   ar
    23    28    29   ar
    24    29    30   ar
    25    30    31   ar
    26    31    32   ar
    27    24    25   ar
    28    25    26    1
    29     6     7    1
    30     7     8    1
    31    13    14   ar
    32    14     9   ar
    33     8     1    1
    34     8     4    1
    35    25    21   ar
    36    32    27   ar
@<TRIPOS>MOLECULE
*****
 32 36 0 0 0
SMALL
GASTEIGER

@<TRIPOS>ATOM
      1 N         141.9062  140.8350  165.3071 N.pl3   1  UNL1       -0.3076
      2 C         142.6681  142.0127  165.8384 C.3     1  UNL1        0.0909
      3 C         143.8412  142.2518  164.9346 C.3     1  UNL1        0.0245
      4 C         143.8042  141.2218  163.8447 C.3     1  UNL1        0.0372
      5 C         144.5062  140.7330  162.6126 C.3     1  UNL1        0.0738
      6 N         143.7442  139.5553  162.0814 N.3     1  UNL1       -0.2712
      7 C         142.5712  139.3162  162.9851 C.3     1  UNL1        0.0921
      8 C         142.6082  140.3462  164.0750 C.3     1  UNL1        0.0901
      9 C         139.1899  139.7290  167.9809 C.ar    1  UNL1        0.1400
     10 C         138.1698  139.0767  167.0955 C.ar    1  UNL1        0.0370
     11 C         138.3951  139.0105  165.6140 C.ar    1  UNL1        0.0044
     12 C         139.6406  139.5966  165.0179 C.ar    1  UNL1        0.0147
     13 C         140.6607  140.2489  165.9033 C.ar    1  UNL1        0.0509
     14 C         140.4354  140.3151  167.3848 C.ar    1  UNL1        0.0514
     15 C         140.0815  140.2116  170.3730 C.3     1  UNL1        0.2525
     16 O         138.9646  139.7952  169.4623 O.3     1  UNL1       -0.4714
     17 C         144.0939  138.7569  160.8606 C.3     1  UNL1        0.0731
     18 C         143.1127  137.7677  160.3050 C.3     1  UNL1        0.0294
     19 C         142.6621  137.8786  158.8786 C.3     1  UNL1        0.0666
     20 S         141.3254  138.4796  158.5589 S.3     1  UNL1       -0.0756
     21 C         140.5193  139.1343  159.6412 C.ar    1  UNL1        0.1933
     22 N         139.4759  138.4686  160.4888 N.ar    1  UNL1       -0.1221
     23 N         138.9267  139.4926  161.4374 N.ar    1  UNL1       -0.1266
     24 C         139.6307  140.7911  161.1762 C.ar    1  UNL1        0.1862
     25 N         140.6149  140.5697  160.0661 N.ar    1  UNL1       -0.2872
     26 C         141.5335  141.6024  159.4832 C.3     1  UNL1        0.1340
     27 C         139.3923  142.0841  161.8983 C.ar    1  UNL1        0.1362
     28 C         138.0688  142.7791  161.7749 C.ar    1  UNL1        0.1211
     29 N         137.8305  144.0721  162.4970 N.ar    1  UNL1       -0.2390
     30 C         138.9156  144.6700  163.3425 C.ar    1  UNL1        0.1195
     31 C         140.2392  143.9750  163.4659 C.ar    1  UNL1        0.1196
     32 N         140.4776  142.6821  162.7438 N.ar    1  UNL1       -0.2375
@<TRIPOS>BOND
     1    15    16    1
     2    16     9    1
     3     9    10   ar
     4    10    11   ar
     5    11    12   ar
     6    12    13   ar
     7    13     1    1
     8     1     2    1
     9     2     3    1
    10     3     4    1
    11     4     5    1
    12     5     6    1
    13     6    17    1
    14    17    18    1
    15    18    19    1
    16    19    20    1
    17    20    21    1
    18    21    22   ar
    19    22    23   ar
    20    23    24   ar
    21    24    27    1
    22    27    28   ar
    23    28    29   ar
    24    29    30   ar
    25    30    31   ar
    26    31    32   ar
    27    24    25   ar
    28    25    26    1
    29     6     7    1
    30     7     8    1
    31    13    14   ar
    32    14     9   ar
    33     8     1    1
    34     8     4    1
    35    25    21   ar
    36    32    27   ar
@<TRIPOS>MOLECULE
*****
 32 36 0 0 0
SMALL
GASTEIGER

@<TRIPOS>ATOM
      1 N         143.5703  141.2816  163.5463 N.pl3   1  UNL1       -0.3076
      2 C         144.3810  140.5460  164.5719 C.3     1  UNL1        0.0909
      3 C         144.6504  139.1667  164.0475 C.3     1  UNL1        0.0245
      4 C         144.0062  139.0499  162.6979 C.3     1  UNL1        0.0372
      5 C         143.7746  138.1252  161.5397 C.3     1  UNL1        0.0738
      6 N         142.9639  138.8608  160.5143 N.3     1  UNL1       -0.2712
      7 C         142.6945  140.2401  161.0386 C.3     1  UNL1        0.0921
      8 C         143.3387  140.3569  162.3882 C.3     1  UNL1        0.0901
      9 C         141.1121  144.3856  163.8155 C.ar    1  UNL1        0.1400
     10 C         142.0926  145.5186  163.8848 C.ar    1  UNL1        0.0370
     11 C         143.5657  145.2393  163.8413 C.ar    1  UNL1        0.0044
     12 C         144.0583  143.8269  163.7284 C.ar    1  UNL1        0.0147
     13 C         143.0777  142.6939  163.6592 C.ar    1  UNL1        0.0509
     14 C         141.6046  142.9732  163.7027 C.ar    1  UNL1        0.0514
     15 C         138.9183  144.6864  165.1744 C.3     1  UNL1        0.2525
     16 O         139.6390  144.6649  163.8591 O.3     1  UNL1       -0.4714
     17 C         142.5035  138.3133  159.1959 C.3     1  UNL1        0.0731
     18 C         141.1948  138.7593  158.6144 C.3     1  UNL1        0.0294
     19 C         139.9089  138.1923  159.1388 C.3     1  UNL1        0.0666
     20 S         139.2155  138.8500  160.2950 S.3     1  UNL1       -0.0756
     21 C         139.6368  138.5351  161.6998 C.ar    1  UNL1        0.1933
     22 N         140.4677  137.3623  162.1292 N.ar    1  UNL1       -0.1221
     23 N         140.6456  137.4401  163.6166 N.ar    1  UNL1       -0.1266
     24 C         139.9247  138.6609  164.1064 C.ar    1  UNL1        0.1862
     25 N         139.3013  139.3376  162.9218 N.ar    1  UNL1       -0.2872
     26 C         138.4855  140.5960  162.9536 C.3     1  UNL1        0.1340
     27 C         139.8418  139.1237  165.5308 C.ar    1  UNL1        0.1362
     28 C         138.5973  138.8730  166.3296 C.ar    1  UNL1        0.1211
     29 N         138.5145  139.3358  167.7541 N.ar    1  UNL1       -0.2390
     30 C         139.6762  140.0494  168.3796 C.ar    1  UNL1        0.1195
     31 C         140.9207  140.3001  167.5808 C.ar    1  UNL1        0.1196
     32 N         141.0036  139.8373  166.1564 N.ar    1  UNL1       -0.2375
@<TRIPOS>BOND
     1    15    16    1
     2    16     9    1
     3     9    10   ar
     4    10    11   ar
     5    11    12   ar
     6    12    13   ar
     7    13     1    1
     8     1     2    1
     9     2     3    1
    10     3     4    1
    11     4     5    1
    12     5     6    1
    13     6    17    1
    14    17    18    1
    15    18    19    1
    16    19    20    1
    17    20    21    1
    18    21    22   ar
    19    22    23   ar
    20    23    24   ar
    21    24    27    1
    22    27    28   ar
    23    28    29   ar
    24    29    30   ar
    25    30    31   ar
    26    31    32   ar
    27    24    25   ar
    28    25    26    1
    29     6     7    1
    30     7     8    1
    31    13    14   ar
    32    14     9   ar
    33     8     1    1
    34     8     4    1
    35    25    21   ar
    36    32    27   ar
@<TRIPOS>MOLECULE
*****
 32 36 0 0 0
SMALL
GASTEIGER

@<TRIPOS>ATOM
      1 N         141.7527  143.8353  163.1698 N.pl3   1  UNL1       -0.3076
      2 C         142.8334  144.7003  163.7475 C.3     1  UNL1        0.0909
      3 C         144.0986  144.4304  162.9883 C.3     1  UNL1        0.0245
      4 C         143.7998  143.3986  161.9414 C.3     1  UNL1        0.0372
      5 C         144.3971  142.5941  160.8251 C.3     1  UNL1        0.0738
      6 N         143.3164  141.7291  160.2474 N.3     1  UNL1       -0.2712
      7 C         142.0512  141.9990  161.0065 C.3     1  UNL1        0.0921
      8 C         142.3499  143.0308  162.0535 C.3     1  UNL1        0.0901
      9 C         137.9525  142.7353  163.4842 C.ar    1  UNL1        0.1400
     10 C         137.4704  143.6810  164.5440 C.ar    1  UNL1        0.0370
     11 C         138.4157  144.6781  165.1458 C.ar    1  UNL1        0.0044
     12 C         139.8431  144.7295  164.6877 C.ar    1  UNL1        0.0147
     13 C         140.3252  143.7839  163.6278 C.ar    1  UNL1        0.0509
     14 C         139.3800  142.7867  163.0261 C.ar    1  UNL1        0.0514
     15 C         137.5432  140.5434  162.1508 C.3     1  UNL1        0.2525
     16 O         137.0072  141.7382  162.8824 O.3     1  UNL1       -0.4714
     17 C         143.4733  140.7637  159.1102 C.3     1  UNL1        0.0731
     18 C         143.7203  139.3107  159.3885 C.3     1  UNL1        0.0294
     19 C         142.9506  138.6128  160.4705 C.3     1  UNL1        0.0666
     20 S         143.6672  138.0773  161.6746 S.3     1  UNL1       -0.0756
     21 C         143.6304  138.8358  162.9681 C.ar    1  UNL1        0.1933
     22 N         144.5293  139.9748  163.3482 N.ar    1  UNL1       -0.1221
     23 N         144.1427  140.4315  164.7237 N.ar    1  UNL1       -0.1266
     24 C         143.0048  139.5746  165.1938 C.ar    1  UNL1        0.1862
     25 N         142.6882  138.5884  164.1088 N.ar    1  UNL1       -0.2872
     26 C         141.6173  137.5391  164.1561 C.3     1  UNL1        0.1340
     27 C         142.3061  139.6846  166.5166 C.ar    1  UNL1        0.1362
     28 C         140.8749  140.1295  166.5741 C.ar    1  UNL1        0.1211
     29 N         140.1763  140.2395  167.8970 N.ar    1  UNL1       -0.2390
     30 C         140.9090  139.9045  169.1623 C.ar    1  UNL1        0.1195
     31 C         142.3403  139.4595  169.1047 C.ar    1  UNL1        0.1196
     32 N         143.0389  139.3495  167.7819 N.ar    1  UNL1       -0.2375
@<TRIPOS>BOND
     1    15    16    1
     2    16     9    1
     3     9    10   ar
     4    10    11   ar
     5    11    12   ar
     6    12    13   ar
     7    13     1    1
     8     1     2    1
     9     2     3    1
    10     3     4    1
    11     4     5    1
    12     5     6    1
    13     6    17    1
    14    17    18    1
    15    18    19    1
    16    19    20    1
    17    20    21    1
    18    21    22   ar
    19    22    23   ar
    20    23    24   ar
    21    24    27    1
    22    27    28   ar
    23    28    29   ar
    24    29    30   ar
    25    30    31   ar
    26    31    32   ar
    27    24    25   ar
    28    25    26    1
    29     6     7    1
    30     7     8    1
    31    13    14   ar
    32    14     9   ar
    33     8     1    1
    34     8     4    1
    35    25    21   ar
    36    32    27   ar
@<TRIPOS>MOLECULE
*****
 32 36 0 0 0
SMALL
GASTEIGER

@<TRIPOS>ATOM
      1 N         140.4415  138.9245  163.0699 N.pl3   1  UNL1       -0.3076
      2 C         139.4364  137.8139  162.9916 C.3     1  UNL1        0.0909
      3 C         138.3142  138.2659  162.1048 C.3     1  UNL1        0.0245
      4 C         138.6259  139.6560  161.6350 C.3     1  UNL1        0.0372
      5 C         138.1249  140.7945  160.7966 C.3     1  UNL1        0.0738
      6 N         139.1301  141.9050  160.8749 N.3     1  UNL1       -0.2712
      7 C         140.2522  141.4530  161.7616 C.3     1  UNL1        0.0921
      8 C         139.9406  140.0630  162.2314 C.3     1  UNL1        0.0901
      9 C         144.2017  139.6272  164.1269 C.ar    1  UNL1        0.1400
     10 C         144.2850  138.8535  165.4093 C.ar    1  UNL1        0.0370
     11 C         143.0872  138.1035  165.9118 C.ar    1  UNL1        0.0044
     12 C         141.8060  138.1272  165.1320 C.ar    1  UNL1        0.0147
     13 C         141.7227  138.9009  163.8496 C.ar    1  UNL1        0.0509
     14 C         142.9206  139.6509  163.3470 C.ar    1  UNL1        0.0514
     15 C         145.5524  141.8378  163.9298 C.3     1  UNL1        0.2525
     16 O         145.3996  140.3772  163.6243 O.3     1  UNL1       -0.4714
     17 C         139.0306  143.2343  160.1871 C.3     1  UNL1        0.0731
     18 C         140.2281  144.1350  160.1188 C.3     1  UNL1        0.0294
     19 C         140.1537  145.5253  160.6770 C.3     1  UNL1        0.0666
     20 S         139.7835  145.7373  162.1151 S.3     1  UNL1       -0.0756
     21 C         140.3926  144.8757  163.1813 C.ar    1  UNL1        0.1933
     22 N         141.8595  144.6947  163.4373 N.ar    1  UNL1       -0.1221
     23 N         142.0153  143.7510  164.5929 N.ar    1  UNL1       -0.1266
     24 C         140.6448  143.3489  165.0510 C.ar    1  UNL1        0.1862
     25 N         139.6419  144.0440  164.1785 N.ar    1  UNL1       -0.2872
     26 C         138.1502  143.9277  164.2848 C.3     1  UNL1        0.1340
     27 C         140.3320  142.4155  166.1827 C.ar    1  UNL1        0.1362
     28 C         139.6835  141.0917  165.9057 C.ar    1  UNL1        0.1211
     29 N         139.3707  140.1583  167.0376 N.ar    1  UNL1       -0.2390
     30 C         139.7064  140.5488  168.4464 C.ar    1  UNL1        0.1195
     31 C         140.3549  141.8727  168.7234 C.ar    1  UNL1        0.1196
     32 N         140.6677  142.8061  167.5917 N.ar    1  UNL1       -0.2375
@<TRIPOS>BOND
     1    15    16    1
     2    16     9    1
     3     9    10   ar
     4    10    11   ar
     5    11    12   ar
     6    12    13   ar
     7    13     1    1
     8     1     2    1
     9     2     3    1
    10     3     4    1
    11     4     5    1
    12     5     6    1
    13     6    17    1
    14    17    18    1
    15    18    19    1
    16    19    20    1
    17    20    21    1
    18    21    22   ar
    19    22    23   ar
    20    23    24   ar
    21    24    27    1
    22    27    28   ar
    23    28    29   ar
    24    29    30   ar
    25    30    31   ar
    26    31    32   ar
    27    24    25   ar
    28    25    26    1
    29     6     7    1
    30     7     8    1
    31    13    14   ar
    32    14     9   ar
    33     8     1    1
    34     8     4    1
    35    25    21   ar
    36    32    27   ar
@<TRIPOS>MOLECULE
*****
 32 36 0 0 0
SMALL
GASTEIGER

@<TRIPOS>ATOM
      1 N         139.2123  141.8944  160.2336 N.pl3   1  UNL1       -0.3076
      2 C         138.5560  141.6157  158.9139 C.3     1  UNL1        0.0909
      3 C         138.5707  140.1321  158.6932 C.3     1  UNL1        0.0245
      4 C         139.2361  139.4940  159.8764 C.3     1  UNL1        0.0372
      5 C         139.6564  138.1827  160.4712 C.3     1  UNL1        0.0738
      6 N         140.3127  138.4615  161.7908 N.3     1  UNL1       -0.2712
      7 C         140.2980  139.9450  162.0117 C.3     1  UNL1        0.0921
      8 C         139.6326  140.5831  160.8285 C.3     1  UNL1        0.0901
      9 C         139.1584  144.8582  162.8725 C.ar    1  UNL1        0.1400
     10 C         139.8145  145.9522  162.0835 C.ar    1  UNL1        0.0370
     11 C         140.2698  145.6937  160.6779 C.ar    1  UNL1        0.0044
     12 C         140.0691  144.3411  160.0613 C.ar    1  UNL1        0.0147
     13 C         139.4130  143.2470  160.8503 C.ar    1  UNL1        0.0509
     14 C         138.9576  143.5055  162.2559 C.ar    1  UNL1        0.0514
     15 C         139.2481  144.2925  165.4066 C.3     1  UNL1        0.2525
     16 O         138.7030  145.1167  164.2781 O.3     1  UNL1       -0.4714
     17 C         140.8835  137.4366  162.7256 C.3     1  UNL1        0.0731
     18 C         140.5460  137.4833  164.1864 C.3     1  UNL1        0.0294
     19 C         139.1118  137.5247  164.6239 C.3     1  UNL1        0.0666
     20 S         138.5196  138.8056  165.1325 S.3     1  UNL1       -0.0756
     21 C         138.8913  139.3154  166.4934 C.ar    1  UNL1        0.1933
     22 N         138.1868  138.9941  167.7781 N.ar    1  UNL1       -0.1221
     23 N         138.8930  139.7162  168.8871 N.ar    1  UNL1       -0.1266
     24 C         140.0339  140.4837  168.2879 C.ar    1  UNL1        0.1862
     25 N         140.0329  140.2360  166.8085 N.ar    1  UNL1       -0.2872
     26 C         141.0031  140.8085  165.8180 C.3     1  UNL1        0.1340
     27 C         141.0053  141.3474  169.0365 C.ar    1  UNL1        0.1362
     28 C         140.5192  142.2421  170.1378 C.ar    1  UNL1        0.1211
     29 N         141.4907  143.1058  170.8865 N.ar    1  UNL1       -0.2390
     30 C         142.9483  143.0745  170.5338 C.ar    1  UNL1        0.1195
     31 C         143.4345  142.1797  169.4325 C.ar    1  UNL1        0.1196
     32 N         142.4631  141.3161  168.6838 N.ar    1  UNL1       -0.2375
@<TRIPOS>BOND
     1    15    16    1
     2    16     9    1
     3     9    10   ar
     4    10    11   ar
     5    11    12   ar
     6    12    13   ar
     7    13     1    1
     8     1     2    1
     9     2     3    1
    10     3     4    1
    11     4     5    1
    12     5     6    1
    13     6    17    1
    14    17    18    1
    15    18    19    1
    16    19    20    1
    17    20    21    1
    18    21    22   ar
    19    22    23   ar
    20    23    24   ar
    21    24    27    1
    22    27    28   ar
    23    28    29   ar
    24    29    30   ar
    25    30    31   ar
    26    31    32   ar
    27    24    25   ar
    28    25    26    1
    29     6     7    1
    30     7     8    1
    31    13    14   ar
    32    14     9   ar
    33     8     1    1
    34     8     4    1
    35    25    21   ar
    36    32    27   ar
