@<TRIPOS>MOLECULE
*****
 33 36 0 0 0
SMALL
GASTEIGER

@<TRIPOS>ATOM
      1 N         140.3319  138.6466  159.8007 N.3     1  UNL1       -0.2724
      2 C         141.7326  138.3549  160.2512 C.3     1  UNL1        0.0758
      3 C         142.7465  137.8484  159.2685 C.3     1  UNL1        0.0609
      4 C         142.3596  137.6337  157.8353 C.3     1  UNL1        0.1687
      5 C         140.9589  137.9254  157.3847 C.3     1  UNL1        0.0609
      6 C         139.9451  138.4318  158.3674 C.3     1  UNL1        0.0758
      7 C         139.3181  139.1530  160.7833 C.3     1  UNL1        0.0722
      8 N         140.4079  139.5646  165.1299 N.pl3   1  UNL1       -0.3075
      9 C         140.7167  140.6758  164.1708 C.3     1  UNL1        0.0908
     10 C         140.3534  140.5386  162.7219 C.3     1  UNL1        0.0229
     11 C         139.6814  139.2902  162.2322 C.3     1  UNL1        0.0194
     12 C         139.3726  138.1790  163.1913 C.3     1  UNL1        0.0229
     13 C         139.7359  138.3162  164.6401 C.3     1  UNL1        0.0908
     14 C         140.0928  140.2480  169.0265 C.ar    1  UNL1        0.0152
     15 C         141.4976  139.9761  169.4765 C.ar    1  UNL1        0.0012
     16 C         142.5392  139.5671  168.4777 C.ar    1  UNL1        0.0013
     17 C         142.1760  139.4299  167.0288 C.ar    1  UNL1        0.0145
     18 C         140.7712  139.7018  166.5788 C.ar    1  UNL1        0.0479
     19 C         139.7296  140.1108  167.5777 C.ar    1  UNL1        0.0156
     20 O         139.1364  141.9984  170.6912 O.co2   1  UNL1       -0.5446
     21 C         139.0512  140.6570  170.0254 C.2     1  UNL1        0.0729
     22 O         137.9244  139.7247  170.3585 O.co2   1  UNL1       -0.5446
     23 O         143.3734  137.1273  156.8526 O.3     1  UNL1       -0.4790
     24 C         143.1501  135.8205  156.1509 C.ar    1  UNL1        0.1392
     25 C         142.7925  135.8028  154.6943 C.ar    1  UNL1        0.0367
     26 C         142.5692  134.4960  153.9926 C.ar    1  UNL1        0.0021
     27 C         142.7036  133.2068  154.7475 C.ar    1  UNL1        0.0177
     28 C         143.0613  133.2244  156.2042 C.ar    1  UNL1        0.0590
     29 CL        143.1957  131.9352  156.9590 Cl      1  UNL1       -0.0824
     30 C         143.2846  134.5312  156.9059 C.ar    1  UNL1        0.0480
     31 C         142.4804  131.9000  154.0458 C.3     1  UNL1        0.1644
     32 O         143.6491  131.0272  153.6963 O.3     1  UNL1       -0.3772
     33 H         144.2003  131.4743  153.0351 H       1  UNL1        0.2109
@<TRIPOS>UNITY_ATOM_ATTR
20 1
charge -1
@<TRIPOS>BOND
     1    20    21   ar
     2    21    22   ar
     3    21    14    1
     4    14    15   ar
     5    15    16   ar
     6    16    17   ar
     7    17    18   ar
     8    18     8    1
     9     8     9    1
    10     9    10    1
    11    10    11    1
    12    11     7    1
    13     7     1    1
    14     1     2    1
    15     2     3    1
    16     3     4    1
    17     4    23    1
    18    23    24    1
    19    24    25   ar
    20    25    26   ar
    21    26    27   ar
    22    27    31    1
    23    31    32    1
    24    27    28   ar
    25    28    29    1
    26    28    30   ar
    27     4     5    1
    28     5     6    1
    29    11    12    1
    30    12    13    1
    31    18    19   ar
    32    19    14   ar
    33    13     8    1
    34     6     1    1
    35    30    24   ar
    36    32    33    1
@<TRIPOS>MOLECULE
*****
 33 36 0 0 0
SMALL
GASTEIGER

@<TRIPOS>ATOM
      1 N         142.1737  144.3676  160.6556 N.3     1  UNL1       -0.2724
      2 C         140.9610  145.2468  160.5757 C.3     1  UNL1        0.0758
      3 C         140.1538  145.2982  159.3124 C.3     1  UNL1        0.0609
      4 C         140.5593  144.4704  158.1290 C.3     1  UNL1        0.1687
      5 C         141.7720  143.5913  158.2089 C.3     1  UNL1        0.0609
      6 C         142.5792  143.5398  159.4721 C.3     1  UNL1        0.0758
      7 C         142.9809  144.3162  161.9188 C.3     1  UNL1        0.0722
      8 N         141.2277  142.4835  165.6360 N.pl3   1  UNL1       -0.3075
      9 C         140.6284  143.7327  165.0614 C.3     1  UNL1        0.0908
     10 C         141.2128  144.3436  163.8223 C.3     1  UNL1        0.0229
     11 C         142.3965  143.7053  163.1578 C.3     1  UNL1        0.0194
     12 C         142.9957  142.4560  163.7325 C.3     1  UNL1        0.0229
     13 C         142.4113  141.8451  164.9715 C.3     1  UNL1        0.0908
     14 C         140.0746  142.0245  169.4056 C.ar    1  UNL1        0.0152
     15 C         139.4746  140.6508  169.3532 C.ar    1  UNL1        0.0012
     16 C         139.4590  139.8879  168.0618 C.ar    1  UNL1        0.0013
     17 C         140.0433  140.4988  166.8227 C.ar    1  UNL1        0.0145
     18 C         140.6433  141.8725  166.8751 C.ar    1  UNL1        0.0479
     19 C         140.6589  142.6354  168.1665 C.ar    1  UNL1        0.0156
     20 O         140.5580  142.1204  171.9565 O.co2   1  UNL1       -0.5446
     21 C         140.0902  142.7874  170.6970 C.2     1  UNL1        0.0729
     22 O         139.6381  144.2173  170.7289 O.co2   1  UNL1       -0.5446
     23 O         139.7521  144.5219  156.8658 O.3     1  UNL1       -0.4790
     24 C         139.8505  145.7141  155.9609 C.ar    1  UNL1        0.1392
     25 C         140.6586  145.6338  154.6997 C.ar    1  UNL1        0.0367
     26 C         140.7570  146.8261  153.7948 C.ar    1  UNL1        0.0021
     27 C         140.0473  148.0986  154.1511 C.ar    1  UNL1        0.0177
     28 C         139.2392  148.1790  155.4123 C.ar    1  UNL1        0.0590
     29 CL        138.5296  149.4516  155.7686 Cl      1  UNL1       -0.0824
     30 C         139.1408  146.9867  156.3172 C.ar    1  UNL1        0.0480
     31 C         140.1457  149.2909  153.2462 C.3     1  UNL1        0.1644
     32 O         141.1981  150.3318  153.4889 O.3     1  UNL1       -0.3772
     33 H         141.0207  150.7808  154.3302 H       1  UNL1        0.2109
@<TRIPOS>UNITY_ATOM_ATTR
20 1
charge -1
@<TRIPOS>BOND
     1    20    21   ar
     2    21    22   ar
     3    21    14    1
     4    14    15   ar
     5    15    16   ar
     6    16    17   ar
     7    17    18   ar
     8    18     8    1
     9     8     9    1
    10     9    10    1
    11    10    11    1
    12    11     7    1
    13     7     1    1
    14     1     2    1
    15     2     3    1
    16     3     4    1
    17     4    23    1
    18    23    24    1
    19    24    25   ar
    20    25    26   ar
    21    26    27   ar
    22    27    31    1
    23    31    32    1
    24    27    28   ar
    25    28    29    1
    26    28    30   ar
    27     4     5    1
    28     5     6    1
    29    11    12    1
    30    12    13    1
    31    18    19   ar
    32    19    14   ar
    33    13     8    1
    34     6     1    1
    35    30    24   ar
    36    32    33    1
@<TRIPOS>MOLECULE
*****
 33 36 0 0 0
SMALL
GASTEIGER

@<TRIPOS>ATOM
      1 N         140.5005  138.9331  159.7826 N.3     1  UNL1       -0.2724
      2 C         140.1999  138.9323  158.3130 C.3     1  UNL1        0.0758
      3 C         141.1717  138.3188  157.3490 C.3     1  UNL1        0.0609
      4 C         142.4441  137.7061  157.8546 C.3     1  UNL1        0.1687
      5 C         142.7447  137.7069  159.3242 C.3     1  UNL1        0.0609
      6 C         141.7729  138.3204  160.2882 C.3     1  UNL1        0.0758
      7 C         139.5287  139.5466  160.7465 C.3     1  UNL1        0.0722
      8 N         140.5093  139.7046  165.1355 N.pl3   1  UNL1       -0.3075
      9 C         141.0125  140.7772  164.2155 C.3     1  UNL1        0.0908
     10 C         140.6856  140.7245  162.7524 C.3     1  UNL1        0.0229
     11 C         139.8556  139.5993  162.2095 C.3     1  UNL1        0.0194
     12 C         139.3524  138.5267  163.1296 C.3     1  UNL1        0.0229
     13 C         139.6793  138.5794  164.5925 C.3     1  UNL1        0.0908
     14 C         140.1129  140.2217  169.0503 C.ar    1  UNL1        0.0152
     15 C         141.4899  139.8627  169.5245 C.ar    1  UNL1        0.0012
     16 C         142.5400  139.4510  168.5358 C.ar    1  UNL1        0.0013
     17 C         142.2132  139.3983  167.0728 C.ar    1  UNL1        0.0145
     18 C         140.8362  139.7573  166.5985 C.ar    1  UNL1        0.0479
     19 C         139.7860  140.1690  167.5873 C.ar    1  UNL1        0.0156
     20 O         137.9708  139.6764  170.4156 O.co2   1  UNL1       -0.5446
     21 C         139.0627  140.6334  170.0390 C.2     1  UNL1        0.0729
     22 O         139.1044  142.0021  170.6512 O.co2   1  UNL1       -0.5446
     23 O         143.4159  137.0926  156.8907 O.3     1  UNL1       -0.4790
     24 C         143.1860  135.7023  156.3767 C.ar    1  UNL1        0.1392
     25 C         143.4272  134.5226  157.2713 C.ar    1  UNL1        0.0367
     26 C         143.1973  133.1323  156.7573 C.ar    1  UNL1        0.0021
     27 C         142.7263  132.9216  155.3489 C.ar    1  UNL1        0.0177
     28 C         142.4852  134.1013  154.4543 C.ar    1  UNL1        0.0590
     29 CL        142.0142  133.8906  153.0459 Cl      1  UNL1       -0.0824
     30 C         142.7150  135.4916  154.9682 C.ar    1  UNL1        0.0480
     31 C         142.4965  131.5312  154.8350 C.3     1  UNL1        0.1644
     32 O         141.2213  130.8121  155.1616 O.3     1  UNL1       -0.3772
     33 H         141.1818  130.6411  156.1156 H       1  UNL1        0.2109
@<TRIPOS>UNITY_ATOM_ATTR
20 1
charge -1
@<TRIPOS>BOND
     1    20    21   ar
     2    21    22   ar
     3    21    14    1
     4    14    15   ar
     5    15    16   ar
     6    16    17   ar
     7    17    18   ar
     8    18     8    1
     9     8     9    1
    10     9    10    1
    11    10    11    1
    12    11     7    1
    13     7     1    1
    14     1     2    1
    15     2     3    1
    16     3     4    1
    17     4    23    1
    18    23    24    1
    19    24    25   ar
    20    25    26   ar
    21    26    27   ar
    22    27    31    1
    23    31    32    1
    24    27    28   ar
    25    28    29    1
    26    28    30   ar
    27     4     5    1
    28     5     6    1
    29    11    12    1
    30    12    13    1
    31    18    19   ar
    32    19    14   ar
    33    13     8    1
    34     6     1    1
    35    30    24   ar
    36    32    33    1
@<TRIPOS>MOLECULE
*****
 33 36 0 0 0
SMALL
GASTEIGER

@<TRIPOS>ATOM
      1 N         138.5756  138.8841  162.9690 N.3     1  UNL1       -0.2724
      2 C         139.0284  137.7015  163.7729 C.3     1  UNL1        0.0758
      3 C         138.9914  137.7548  165.2716 C.3     1  UNL1        0.0609
      4 C         138.5015  138.9907  165.9662 C.3     1  UNL1        0.1687
      5 C         138.0487  140.1733  165.1622 C.3     1  UNL1        0.0609
      6 C         138.0857  140.1200  163.6636 C.3     1  UNL1        0.0758
      7 C         138.6126  138.8307  161.4704 C.3     1  UNL1        0.0722
      8 N         140.0958  142.3758  159.1289 N.pl3   1  UNL1       -0.3075
      9 C         140.8800  141.8719  160.3040 C.3     1  UNL1        0.0908
     10 C         140.3856  140.6901  161.0845 C.3     1  UNL1        0.0229
     11 C         139.1070  140.0124  160.6899 C.3     1  UNL1        0.0194
     12 C         138.3227  140.5164  159.5147 C.3     1  UNL1        0.0229
     13 C         138.8171  141.6981  158.7343 C.3     1  UNL1        0.0908
     14 C         140.1052  145.6848  156.9378 C.ar    1  UNL1        0.0152
     15 C         141.5788  145.9209  156.7873 C.ar    1  UNL1        0.0012
     16 C         142.5581  144.9753  157.4173 C.ar    1  UNL1        0.0013
     17 C         142.0637  143.7936  158.1978 C.ar    1  UNL1        0.0145
     18 C         140.5901  143.5575  158.3483 C.ar    1  UNL1        0.0479
     19 C         139.6109  144.5031  157.7183 C.ar    1  UNL1        0.0156
     20 O         138.8711  147.9710  156.9304 O.co2   1  UNL1       -0.5446
     21 C         139.1259  146.6303  156.3078 C.2     1  UNL1        0.0729
     22 O         138.4014  146.2352  155.0552 O.co2   1  UNL1       -0.5446
     23 O         138.4645  139.0440  167.4647 O.3     1  UNL1       -0.4790
     24 C         139.4103  139.9411  168.2069 C.ar    1  UNL1        0.1392
     25 C         139.0899  140.3749  169.6066 C.ar    1  UNL1        0.0367
     26 C         140.0357  141.2720  170.3487 C.ar    1  UNL1        0.0021
     27 C         141.3018  141.7352  169.6912 C.ar    1  UNL1        0.0177
     28 C         141.6222  141.3014  168.2915 C.ar    1  UNL1        0.0590
     29 CL        142.8883  141.7646  167.6340 Cl      1  UNL1       -0.0824
     30 C         140.6765  140.4043  167.5493 C.ar    1  UNL1        0.0480
     31 C         142.2476  142.6323  170.4334 C.3     1  UNL1        0.1644
     32 O         142.3026  142.5887  171.9317 O.3     1  UNL1       -0.3772
     33 H         141.4606  142.9041  172.2955 H       1  UNL1        0.2109
@<TRIPOS>UNITY_ATOM_ATTR
20 1
charge -1
@<TRIPOS>BOND
     1    20    21   ar
     2    21    22   ar
     3    21    14    1
     4    14    15   ar
     5    15    16   ar
     6    16    17   ar
     7    17    18   ar
     8    18     8    1
     9     8     9    1
    10     9    10    1
    11    10    11    1
    12    11     7    1
    13     7     1    1
    14     1     2    1
    15     2     3    1
    16     3     4    1
    17     4    23    1
    18    23    24    1
    19    24    25   ar
    20    25    26   ar
    21    26    27   ar
    22    27    31    1
    23    31    32    1
    24    27    28   ar
    25    28    29    1
    26    28    30   ar
    27     4     5    1
    28     5     6    1
    29    11    12    1
    30    12    13    1
    31    18    19   ar
    32    19    14   ar
    33    13     8    1
    34     6     1    1
    35    30    24   ar
    36    32    33    1
@<TRIPOS>MOLECULE
*****
 33 36 0 0 0
SMALL
GASTEIGER

@<TRIPOS>ATOM
      1 N         142.6073  144.2827  161.0251 N.3     1  UNL1       -0.2724
      2 C         141.6813  144.6723  159.9112 C.3     1  UNL1        0.0758
      3 C         141.7824  143.9907  158.5788 C.3     1  UNL1        0.0609
      4 C         142.8095  142.9196  158.3603 C.3     1  UNL1        0.1687
      5 C         143.7355  142.5300  159.4741 C.3     1  UNL1        0.0609
      6 C         143.6344  143.2115  160.8065 C.3     1  UNL1        0.0758
      7 C         142.5062  144.9641  162.3575 C.3     1  UNL1        0.0722
      8 N         140.9266  142.7151  165.9208 N.pl3   1  UNL1       -0.3075
      9 C         139.9921  143.5212  165.0682 C.3     1  UNL1        0.0908
     10 C         140.5187  144.2709  163.8804 C.3     1  UNL1        0.0229
     11 C         141.9796  144.2145  163.5452 C.3     1  UNL1        0.0194
     12 C         142.9141  143.4083  164.3979 C.3     1  UNL1        0.0229
     13 C         142.3876  142.6587  165.5857 C.3     1  UNL1        0.0908
     14 C         139.8869  141.8554  169.6531 C.ar    1  UNL1        0.0152
     15 C         139.3471  140.4662  169.4841 C.ar    1  UNL1        0.0012
     16 C         139.3338  139.8266  168.1274 C.ar    1  UNL1        0.0013
     17 C         139.8603  140.5762  166.9396 C.ar    1  UNL1        0.0145
     18 C         140.4001  141.9654  167.1086 C.ar    1  UNL1        0.0479
     19 C         140.4134  142.6051  168.4653 C.ar    1  UNL1        0.0156
     20 O         139.1185  143.7517  171.2543 O.co2   1  UNL1       -0.5446
     21 C         139.9002  142.4951  171.0098 C.2     1  UNL1        0.0729
     22 O         140.6952  141.8781  172.1221 O.co2   1  UNL1       -0.5446
     23 O         142.9106  142.2382  157.0279 O.3     1  UNL1       -0.4790
     24 C         143.7860  142.8149  155.9550 C.ar    1  UNL1        0.1392
     25 C         145.2008  142.3398  155.8053 C.ar    1  UNL1        0.0367
     26 C         146.0762  142.9165  154.7324 C.ar    1  UNL1        0.0021
     27 C         145.5367  143.9684  153.8092 C.ar    1  UNL1        0.0177
     28 C         144.1218  144.4436  153.9588 C.ar    1  UNL1        0.0590
     29 CL        143.5823  145.4954  153.0355 Cl      1  UNL1       -0.0824
     30 C         143.2464  143.8668  155.0317 C.ar    1  UNL1        0.0480
     31 C         146.4121  144.5451  152.7363 C.3     1  UNL1        0.1644
     32 O         147.3460  145.6743  153.0567 O.3     1  UNL1       -0.3772
     33 H         146.8316  146.4635  153.2882 H       1  UNL1        0.2109
@<TRIPOS>UNITY_ATOM_ATTR
20 1
charge -1
@<TRIPOS>BOND
     1    20    21   ar
     2    21    22   ar
     3    21    14    1
     4    14    15   ar
     5    15    16   ar
     6    16    17   ar
     7    17    18   ar
     8    18     8    1
     9     8     9    1
    10     9    10    1
    11    10    11    1
    12    11     7    1
    13     7     1    1
    14     1     2    1
    15     2     3    1
    16     3     4    1
    17     4    23    1
    18    23    24    1
    19    24    25   ar
    20    25    26   ar
    21    26    27   ar
    22    27    31    1
    23    31    32    1
    24    27    28   ar
    25    28    29    1
    26    28    30   ar
    27     4     5    1
    28     5     6    1
    29    11    12    1
    30    12    13    1
    31    18    19   ar
    32    19    14   ar
    33    13     8    1
    34     6     1    1
    35    30    24   ar
    36    32    33    1
@<TRIPOS>MOLECULE
*****
 33 36 0 0 0
SMALL
GASTEIGER

@<TRIPOS>ATOM
      1 N         138.8779  140.4223  159.8196 N.3     1  UNL1       -0.2724
      2 C         139.1077  138.9412  159.7597 C.3     1  UNL1        0.0758
      3 C         139.7567  138.3311  158.5528 C.3     1  UNL1        0.0609
      4 C         140.1759  139.2021  157.4058 C.3     1  UNL1        0.1687
      5 C         139.9461  140.6832  157.4657 C.3     1  UNL1        0.0609
      6 C         139.2972  141.2933  158.6725 C.3     1  UNL1        0.0758
      7 C         138.2290  141.0324  161.0265 C.3     1  UNL1        0.0722
      8 N         140.0105  140.3855  165.1078 N.pl3   1  UNL1       -0.3075
      9 C         140.9054  140.6283  163.9288 C.3     1  UNL1        0.0908
     10 C         140.3116  140.8439  162.5683 C.3     1  UNL1        0.0229
     11 C         138.8228  140.8168  162.3869 C.3     1  UNL1        0.0194
     12 C         137.9279  140.5740  163.5660 C.3     1  UNL1        0.0229
     13 C         138.5217  140.3583  164.9264 C.3     1  UNL1        0.0908
     14 C         140.3709  140.2002  169.0557 C.ar    1  UNL1        0.0152
     15 C         141.7918  139.7385  169.1893 C.ar    1  UNL1        0.0012
     16 C         142.6189  139.4925  167.9624 C.ar    1  UNL1        0.0013
     17 C         142.0252  139.7081  166.6019 C.ar    1  UNL1        0.0145
     18 C         140.6043  140.1698  166.4684 C.ar    1  UNL1        0.0479
     19 C         139.7772  140.4158  167.6953 C.ar    1  UNL1        0.0156
     20 O         139.1502  139.2984  171.1644 O.co2   1  UNL1       -0.5446
     21 C         139.5438  140.4462  170.2826 C.2     1  UNL1        0.0729
     22 O         139.1101  141.8400  170.6277 O.co2   1  UNL1       -0.5446
     23 O         140.8248  138.5920  156.1989 O.3     1  UNL1       -0.4790
     24 C         141.4729  137.2427  156.2973 C.ar    1  UNL1        0.1392
     25 C         142.6485  137.0399  157.2064 C.ar    1  UNL1        0.0367
     26 C         143.2965  135.6906  157.3048 C.ar    1  UNL1        0.0021
     27 C         142.7689  134.5443  156.4940 C.ar    1  UNL1        0.0177
     28 C         141.5931  134.7471  155.5848 C.ar    1  UNL1        0.0590
     29 CL        141.0654  133.6008  154.7741 Cl      1  UNL1       -0.0824
     30 C         140.9451  136.0964  155.4865 C.ar    1  UNL1        0.0480
     31 C         143.4169  133.1951  156.5924 C.3     1  UNL1        0.1644
     32 O         142.7974  132.1257  157.4424 O.3     1  UNL1       -0.3772
     33 H         142.8342  132.3918  158.3745 H       1  UNL1        0.2109
@<TRIPOS>UNITY_ATOM_ATTR
20 1
charge -1
@<TRIPOS>BOND
     1    20    21   ar
     2    21    22   ar
     3    21    14    1
     4    14    15   ar
     5    15    16   ar
     6    16    17   ar
     7    17    18   ar
     8    18     8    1
     9     8     9    1
    10     9    10    1
    11    10    11    1
    12    11     7    1
    13     7     1    1
    14     1     2    1
    15     2     3    1
    16     3     4    1
    17     4    23    1
    18    23    24    1
    19    24    25   ar
    20    25    26   ar
    21    26    27   ar
    22    27    31    1
    23    31    32    1
    24    27    28   ar
    25    28    29    1
    26    28    30   ar
    27     4     5    1
    28     5     6    1
    29    11    12    1
    30    12    13    1
    31    18    19   ar
    32    19    14   ar
    33    13     8    1
    34     6     1    1
    35    30    24   ar
    36    32    33    1
@<TRIPOS>MOLECULE
*****
 33 36 0 0 0
SMALL
GASTEIGER

@<TRIPOS>ATOM
      1 N         142.9479  140.2867  160.1748 N.3     1  UNL1       -0.2724
      2 C         143.5575  140.2722  158.8044 C.3     1  UNL1        0.0758
      3 C         142.9758  139.3969  157.7340 C.3     1  UNL1        0.0609
      4 C         141.7845  138.5363  158.0341 C.3     1  UNL1        0.1687
      5 C         141.1748  138.5509  159.4045 C.3     1  UNL1        0.0609
      6 C         141.7565  139.4261  160.4749 C.3     1  UNL1        0.0758
      7 C         143.5295  141.1619  161.2452 C.3     1  UNL1        0.0722
      8 N         141.6665  141.2474  165.3405 N.pl3   1  UNL1       -0.3075
      9 C         142.7067  140.2181  165.0111 C.3     1  UNL1        0.0908
     10 C         143.3277  140.1895  163.6459 C.3     1  UNL1        0.0229
     11 C         142.9085  141.1904  162.6103 C.3     1  UNL1        0.0194
     12 C         141.8684  142.2198  162.9398 C.3     1  UNL1        0.0229
     13 C         141.2474  142.2483  164.3049 C.3     1  UNL1        0.0908
     14 C         140.7329  142.4314  169.0116 C.ar    1  UNL1        0.0152
     15 C         139.8036  141.3331  169.4359 C.ar    1  UNL1        0.0012
     16 C         139.4952  140.2063  168.4951 C.ar    1  UNL1        0.0013
     17 C         140.1162  140.1777  167.1300 C.ar    1  UNL1        0.0145
     18 C         141.0455  141.2760  166.7057 C.ar    1  UNL1        0.0479
     19 C         141.3539  142.4028  167.6465 C.ar    1  UNL1        0.0156
     20 O         139.9528  144.4973  170.3802 O.co2   1  UNL1       -0.5446
     21 C         141.0413  143.5582  169.9524 C.2     1  UNL1        0.0729
     22 O         142.4383  143.7460  170.4654 O.co2   1  UNL1       -0.5446
     23 O         141.2028  137.6612  156.9637 O.3     1  UNL1       -0.4790
     24 C         141.8597  136.3565  156.6224 C.ar    1  UNL1        0.1392
     25 C         143.0060  135.8550  157.4496 C.ar    1  UNL1        0.0367
     26 C         143.6629  134.5504  157.1083 C.ar    1  UNL1        0.0021
     27 C         143.1734  133.7473  155.9399 C.ar    1  UNL1        0.0177
     28 C         142.0270  134.2488  155.1126 C.ar    1  UNL1        0.0590
     29 CL        141.5375  133.4457  153.9441 Cl      1  UNL1       -0.0824
     30 C         141.3702  135.5534  155.4539 C.ar    1  UNL1        0.0480
     31 C         143.8303  132.4426  155.5986 C.3     1  UNL1        0.1644
     32 O         145.2466  132.1835  156.0190 O.3     1  UNL1       -0.3772
     33 H         145.8395  132.7913  155.5500 H       1  UNL1        0.2109
@<TRIPOS>UNITY_ATOM_ATTR
20 1
charge -1
@<TRIPOS>BOND
     1    20    21   ar
     2    21    22   ar
     3    21    14    1
     4    14    15   ar
     5    15    16   ar
     6    16    17   ar
     7    17    18   ar
     8    18     8    1
     9     8     9    1
    10     9    10    1
    11    10    11    1
    12    11     7    1
    13     7     1    1
    14     1     2    1
    15     2     3    1
    16     3     4    1
    17     4    23    1
    18    23    24    1
    19    24    25   ar
    20    25    26   ar
    21    26    27   ar
    22    27    31    1
    23    31    32    1
    24    27    28   ar
    25    28    29    1
    26    28    30   ar
    27     4     5    1
    28     5     6    1
    29    11    12    1
    30    12    13    1
    31    18    19   ar
    32    19    14   ar
    33    13     8    1
    34     6     1    1
    35    30    24   ar
    36    32    33    1
@<TRIPOS>MOLECULE
*****
 33 36 0 0 0
SMALL
GASTEIGER

@<TRIPOS>ATOM
      1 N         139.9179  139.7294  160.3270 N.3     1  UNL1       -0.2724
      2 C         139.7304  138.3534  160.8938 C.3     1  UNL1        0.0758
      3 C         139.2886  138.1823  162.3171 C.3     1  UNL1        0.0609
      4 C         139.0343  139.3872  163.1734 C.3     1  UNL1        0.1687
      5 C         139.2218  140.7633  162.6066 C.3     1  UNL1        0.0609
      6 C         139.6636  140.9344  161.1835 C.3     1  UNL1        0.0758
      7 C         140.3597  139.9006  158.9038 C.3     1  UNL1        0.0722
      8 N         141.5756  136.3105  156.4783 N.pl3   1  UNL1       -0.3075
      9 C         142.5515  136.9394  157.4281 C.3     1  UNL1        0.0908
     10 C         142.1462  138.1361  158.2367 C.3     1  UNL1        0.0229
     11 C         140.7650  138.7039  158.0954 C.3     1  UNL1        0.0194
     12 C         139.7891  138.0750  157.1455 C.3     1  UNL1        0.0229
     13 C         140.1944  136.8783  156.3370 C.3     1  UNL1        0.0908
     14 C         143.0984  132.7731  155.5201 C.ar    1  UNL1        0.0152
     15 C         142.7914  132.7204  154.0529 C.ar    1  UNL1        0.0012
     16 C         142.0791  133.8644  153.3940 C.ar    1  UNL1        0.0013
     17 C         141.6738  135.0611  154.2025 C.ar    1  UNL1        0.0145
     18 C         141.9808  135.1138  155.6698 C.ar    1  UNL1        0.0479
     19 C         142.6931  133.9698  156.3286 C.ar    1  UNL1        0.0156
     20 O         145.2691  131.4007  155.9131 O.co2   1  UNL1       -0.5446
     21 C         143.8106  131.6292  156.1789 C.2     1  UNL1        0.0729
     22 O         143.0644  130.7136  157.1035 O.co2   1  UNL1       -0.5446
     23 O         138.5924  139.2161  164.5966 O.3     1  UNL1       -0.4790
     24 C         139.5766  139.3957  165.7142 C.ar    1  UNL1        0.1392
     25 C         141.0386  139.1655  165.4704 C.ar    1  UNL1        0.0367
     26 C         142.0228  139.3451  166.5880 C.ar    1  UNL1        0.0021
     27 C         141.5450  139.7549  167.9495 C.ar    1  UNL1        0.0177
     28 C         140.0830  139.9852  168.1934 C.ar    1  UNL1        0.0590
     29 CL        139.6052  140.3951  169.5549 Cl      1  UNL1       -0.0824
     30 C         139.0988  139.8056  167.0758 C.ar    1  UNL1        0.0480
     31 C         142.5292  139.9345  169.0671 C.3     1  UNL1        0.1644
     32 O         142.9235  138.7617  169.9150 O.3     1  UNL1       -0.3772
     33 H         142.1552  138.4569  170.4227 H       1  UNL1        0.2109
@<TRIPOS>UNITY_ATOM_ATTR
20 1
charge -1
@<TRIPOS>BOND
     1    20    21   ar
     2    21    22   ar
     3    21    14    1
     4    14    15   ar
     5    15    16   ar
     6    16    17   ar
     7    17    18   ar
     8    18     8    1
     9     8     9    1
    10     9    10    1
    11    10    11    1
    12    11     7    1
    13     7     1    1
    14     1     2    1
    15     2     3    1
    16     3     4    1
    17     4    23    1
    18    23    24    1
    19    24    25   ar
    20    25    26   ar
    21    26    27   ar
    22    27    31    1
    23    31    32    1
    24    27    28   ar
    25    28    29    1
    26    28    30   ar
    27     4     5    1
    28     5     6    1
    29    11    12    1
    30    12    13    1
    31    18    19   ar
    32    19    14   ar
    33    13     8    1
    34     6     1    1
    35    30    24   ar
    36    32    33    1
@<TRIPOS>MOLECULE
*****
 33 36 0 0 0
SMALL
GASTEIGER

@<TRIPOS>ATOM
      1 N         138.3228  139.2318  160.1197 N.3     1  UNL1       -0.2724
      2 C         137.5783  140.3797  159.5048 C.3     1  UNL1        0.0758
      3 C         138.1018  141.0323  158.2597 C.3     1  UNL1        0.0609
      4 C         139.3697  140.5370  157.6296 C.3     1  UNL1        0.1687
      5 C         140.1142  139.3891  158.2445 C.3     1  UNL1        0.0609
      6 C         139.5907  138.7365  159.4895 C.3     1  UNL1        0.0758
      7 C         137.7993  138.5792  161.3647 C.3     1  UNL1        0.0722
      8 N         139.8600  139.2717  165.3047 N.pl3   1  UNL1       -0.3075
      9 C         139.1452  140.4008  164.6236 C.3     1  UNL1        0.0908
     10 C         138.4583  140.1700  163.3102 C.3     1  UNL1        0.0229
     11 C         138.4862  138.8100  162.6780 C.3     1  UNL1        0.0194
     12 C         139.2011  137.6808  163.3592 C.3     1  UNL1        0.0229
     13 C         139.8879  137.9117  164.6725 C.3     1  UNL1        0.0908
     14 C         140.4287  140.0847  169.1473 C.ar    1  UNL1        0.0152
     15 C         141.9206  139.9641  169.2448 C.ar    1  UNL1        0.0012
     16 C         142.7257  139.6126  168.0289 C.ar    1  UNL1        0.0013
     17 C         142.0389  139.3818  166.7156 C.ar    1  UNL1        0.0145
     18 C         140.5469  139.5025  166.6181 C.ar    1  UNL1        0.0479
     19 C         139.7418  139.8539  167.8340 C.ar    1  UNL1        0.0156
     20 O         138.2390  139.8844  170.5311 O.co2   1  UNL1       -0.5446
     21 C         139.6236  140.4362  170.3632 C.2     1  UNL1        0.0729
     22 O         140.2032  141.3394  171.4111 O.co2   1  UNL1       -0.5446
     23 O         139.8931  141.1896  156.3846 O.3     1  UNL1       -0.4790
     24 C         139.8409  142.6818  156.2412 C.ar    1  UNL1        0.1392
     25 C         138.7482  143.3201  155.4358 C.ar    1  UNL1        0.0367
     26 C         138.6960  144.8123  155.2924 C.ar    1  UNL1        0.0021
     27 C         139.7363  145.6663  155.9544 C.ar    1  UNL1        0.0177
     28 C         140.8291  145.0280  156.7599 C.ar    1  UNL1        0.0590
     29 CL        141.8694  145.8820  157.4219 Cl      1  UNL1       -0.0824
     30 C         140.8813  143.5358  156.9033 C.ar    1  UNL1        0.0480
     31 C         139.6841  147.1585  155.8111 C.3     1  UNL1        0.1644
     32 O         138.5197  147.9248  156.3650 O.3     1  UNL1       -0.3772
     33 H         137.7150  147.6868  155.8784 H       1  UNL1        0.2109
@<TRIPOS>UNITY_ATOM_ATTR
20 1
charge -1
@<TRIPOS>BOND
     1    20    21   ar
     2    21    22   ar
     3    21    14    1
     4    14    15   ar
     5    15    16   ar
     6    16    17   ar
     7    17    18   ar
     8    18     8    1
     9     8     9    1
    10     9    10    1
    11    10    11    1
    12    11     7    1
    13     7     1    1
    14     1     2    1
    15     2     3    1
    16     3     4    1
    17     4    23    1
    18    23    24    1
    19    24    25   ar
    20    25    26   ar
    21    26    27   ar
    22    27    31    1
    23    31    32    1
    24    27    28   ar
    25    28    29    1
    26    28    30   ar
    27     4     5    1
    28     5     6    1
    29    11    12    1
    30    12    13    1
    31    18    19   ar
    32    19    14   ar
    33    13     8    1
    34     6     1    1
    35    30    24   ar
    36    32    33    1
