@<TRIPOS>MOLECULE
*****
 26 28 0 0 0
SMALL
GASTEIGER

@<TRIPOS>ATOM
      1 C         140.9219  141.6958  165.7298 C.ar    1  UNL1        0.0888
      2 C         140.6962  143.0800  165.1976 C.ar    1  UNL1        0.0538
      3 C         141.0835  143.4137  163.7874 C.ar    1  UNL1        0.1388
      4 N         141.6963  142.3632  162.9094 N.ar    1  UNL1       -0.1948
      5 C         141.9220  140.9790  163.4416 C.ar    1  UNL1        0.2539
      6 N         141.5348  140.6454  164.8518 N.ar    1  UNL1       -0.2098
      7 N         142.5348  139.9286  162.5635 N.ar    1  UNL1       -0.2008
      8 N         141.9702  139.4216  161.2697 N.ar    1  UNL1       -0.1673
      9 C         142.9063  138.3804  160.7317 C.ar    1  UNL1        0.0806
     10 C         142.7301  137.6109  159.4562 C.3     1  UNL1        0.0540
     11 C         144.0496  138.2438  161.6931 C.ar    1  UNL1        0.0313
     12 C         143.8200  139.2006  162.8252 C.ar    1  UNL1        0.0651
     13 C         144.7179  139.3953  164.0109 C.3     1  UNL1        0.0523
     14 C         140.7335  141.8043  169.6925 C.ar    1  UNL1        0.1579
     15 C         139.7603  140.6947  169.9605 C.ar    1  UNL1        0.1356
     16 N         139.1743  139.9189  168.8182 N.ar    1  UNL1       -0.2391
     17 C         139.5615  140.2526  167.4080 C.ar    1  UNL1        0.1006
     18 C         140.5347  141.3621  167.1401 C.ar    1  UNL1        0.0400
     19 C         141.1207  142.1379  168.2823 C.ar    1  UNL1        0.0416
     20 C         142.6765  143.2048  170.6992 C.3     1  UNL1        0.2525
     21 O         141.3195  142.5801  170.8347 O.3     1  UNL1       -0.4699
     22 N         140.8578  144.7978  163.2552 N.am    1  UNL1       -0.2692
     23 C         139.7734  145.0471  162.2494 C.2     1  UNL1        0.2277
     24 C         139.5477  146.4312  161.7172 C.3     1  UNL1        0.0950
     25 O         138.9145  143.9122  161.7756 O.2     1  UNL1       -0.2747
     26 H         141.4215  145.5427  163.5661 H       1  UNL1        0.1563
@<TRIPOS>BOND
     1    20    21    1
     2    21    14    1
     3    14    15   ar
     4    15    16   ar
     5    16    17   ar
     6    17    18   ar
     7    18     1    1
     8     1     2   ar
     9     2     3   ar
    10     3    22    1
    11    22    23   am
    12    23    24    1
    13    23    25    2
    14     3     4   ar
    15     4     5   ar
    16     5     7    1
    17     7     8   ar
    18     8     9   ar
    19     9    10    1
    20     9    11   ar
    21    11    12   ar
    22    12    13    1
    23     5     6   ar
    24    18    19   ar
    25    19    14   ar
    26     6     1   ar
    27    12     7   ar
    28    22    26    1
@<TRIPOS>MOLECULE
*****
 26 28 0 0 0
SMALL
GASTEIGER

@<TRIPOS>ATOM
      1 C         141.0602  140.1675  166.2306 C.ar    1  UNL1        0.0888
      2 C         141.6906  139.1418  165.3360 C.ar    1  UNL1        0.0538
      3 C         141.7000  139.3468  163.8500 C.ar    1  UNL1        0.1388
      4 N         141.0789  140.5775  163.2588 N.ar    1  UNL1       -0.1948
      5 C         140.4486  141.6033  164.1535 C.ar    1  UNL1        0.2539
      6 N         140.4392  141.3983  165.6394 N.ar    1  UNL1       -0.2098
      7 N         139.8275  142.8341  163.5623 N.ar    1  UNL1       -0.2008
      8 N         140.5636  143.9667  162.9100 N.ar    1  UNL1       -0.1673
      9 C         139.5524  144.9810  162.4642 C.ar    1  UNL1        0.0806
     10 C         139.8500  146.2740  161.7644 C.3     1  UNL1        0.0540
     11 C         138.1914  144.4752  162.8409 C.ar    1  UNL1        0.0313
     12 C         138.3615  143.1484  163.5195 C.ar    1  UNL1        0.0651
     13 C         137.2590  142.2870  164.0605 C.3     1  UNL1        0.0523
     14 C         142.2547  139.2060  169.8911 C.ar    1  UNL1        0.1579
     15 C         141.0322  139.5525  170.6883 C.ar    1  UNL1        0.1356
     16 N         139.8192  140.1041  169.9996 N.ar    1  UNL1       -0.2391
     17 C         139.8285  140.3091  168.5138 C.ar    1  UNL1        0.1006
     18 C         141.0509  139.9625  167.7166 C.ar    1  UNL1        0.0400
     19 C         142.2640  139.4110  168.4052 C.ar    1  UNL1        0.0416
     20 C         143.6901  137.1721  170.6346 C.3     1  UNL1        0.2525
     21 O         143.4677  138.6545  170.5797 O.3     1  UNL1       -0.4699
     22 N         142.3303  138.3210  162.9554 N.am    1  UNL1       -0.2692
     23 C         143.5435  138.6747  162.1472 C.2     1  UNL1        0.2277
     24 C         144.1739  137.6489  161.2526 C.3     1  UNL1        0.0950
     25 O         144.1264  140.0540  162.2338 O.2     1  UNL1       -0.2747
     26 H         141.9478  137.4157  162.8986 H       1  UNL1        0.1563
@<TRIPOS>BOND
     1    20    21    1
     2    21    14    1
     3    14    15   ar
     4    15    16   ar
     5    16    17   ar
     6    17    18   ar
     7    18     1    1
     8     1     2   ar
     9     2     3   ar
    10     3    22    1
    11    22    23   am
    12    23    24    1
    13    23    25    2
    14     3     4   ar
    15     4     5   ar
    16     5     7    1
    17     7     8   ar
    18     8     9   ar
    19     9    10    1
    20     9    11   ar
    21    11    12   ar
    22    12    13    1
    23     5     6   ar
    24    18    19   ar
    25    19    14   ar
    26     6     1   ar
    27    12     7   ar
    28    22    26    1
@<TRIPOS>MOLECULE
*****
 26 28 0 0 0
SMALL
GASTEIGER

@<TRIPOS>ATOM
      1 C         140.8778  142.0611  166.5013 C.ar    1  UNL1        0.0888
      2 C         140.3180  143.2910  165.8503 C.ar    1  UNL1        0.0538
      3 C         140.0353  143.2973  164.3772 C.ar    1  UNL1        0.1388
      4 N         140.3125  142.0737  163.5551 N.ar    1  UNL1       -0.1948
      5 C         140.8724  140.8437  164.2061 C.ar    1  UNL1        0.2539
      6 N         141.1550  140.8375  165.6792 N.ar    1  UNL1       -0.2098
      7 N         141.1495  139.6201  163.3841 N.ar    1  UNL1       -0.2008
      8 N         142.1300  139.5211  162.2532 N.ar    1  UNL1       -0.1673
      9 C         142.0814  138.1204  161.7187 C.ar    1  UNL1        0.0806
     10 C         142.8996  137.5811  160.5831 C.3     1  UNL1        0.0540
     11 C         141.0708  137.3536  162.5192 C.ar    1  UNL1        0.0313
     12 C         140.4949  138.2805  163.5485 C.ar    1  UNL1        0.0651
     13 C         139.4482  137.9294  164.5639 C.3     1  UNL1        0.0523
     14 C         142.2747  140.9533  170.0470 C.ar    1  UNL1        0.1579
     15 C         141.7259  142.0421  170.9206 C.ar    1  UNL1        0.1356
     16 N         140.8944  143.1372  170.3212 N.ar    1  UNL1       -0.2391
     17 C         140.6117  143.1436  168.8481 C.ar    1  UNL1        0.1006
     18 C         141.1605  142.0548  167.9745 C.ar    1  UNL1        0.0400
     19 C         141.9920  140.9597  168.5739 C.ar    1  UNL1        0.0416
     20 C         142.8642  138.4314  170.2521 C.3     1  UNL1        0.2525
     21 O         143.1062  139.8582  170.6464 O.3     1  UNL1       -0.4699
     22 N         139.4755  144.5273  163.7262 N.am    1  UNL1       -0.2692
     23 C         140.2150  145.1806  162.5964 C.2     1  UNL1        0.2277
     24 C         139.6552  146.4105  161.9454 C.3     1  UNL1        0.0950
     25 O         141.5143  144.6040  162.1176 O.2     1  UNL1       -0.2747
     26 H         138.6227  144.9057  164.0404 H       1  UNL1        0.1563
@<TRIPOS>BOND
     1    20    21    1
     2    21    14    1
     3    14    15   ar
     4    15    16   ar
     5    16    17   ar
     6    17    18   ar
     7    18     1    1
     8     1     2   ar
     9     2     3   ar
    10     3    22    1
    11    22    23   am
    12    23    24    1
    13    23    25    2
    14     3     4   ar
    15     4     5   ar
    16     5     7    1
    17     7     8   ar
    18     8     9   ar
    19     9    10    1
    20     9    11   ar
    21    11    12   ar
    22    12    13    1
    23     5     6   ar
    24    18    19   ar
    25    19    14   ar
    26     6     1   ar
    27    12     7   ar
    28    22    26    1
@<TRIPOS>MOLECULE
*****
 26 28 0 0 0
SMALL
GASTEIGER

@<TRIPOS>ATOM
      1 C         141.0939  138.7933  161.2846 C.ar    1  UNL1        0.0888
      2 C         140.3042  138.0220  162.3001 C.ar    1  UNL1        0.0538
      3 C         140.3970  138.3818  163.7535 C.ar    1  UNL1        0.1388
      4 N         141.2797  139.5129  164.1912 N.ar    1  UNL1       -0.1948
      5 C         142.0695  140.2842  163.1755 C.ar    1  UNL1        0.2539
      6 N         141.9766  139.9244  161.7223 N.ar    1  UNL1       -0.2098
      7 N         142.9522  141.4152  163.6132 N.ar    1  UNL1       -0.2008
      8 N         142.5873  142.8702  163.6108 N.ar    1  UNL1       -0.1673
      9 C         143.7643  143.6441  164.1263 C.ar    1  UNL1        0.0806
     10 C         143.8364  145.1332  164.2917 C.3     1  UNL1        0.0540
     11 C         144.8567  142.6675  164.4473 C.ar    1  UNL1        0.0313
     12 C         144.3547  141.2900  164.1302 C.ar    1  UNL1        0.0651
     13 C         145.1208  140.0116  164.3002 C.3     1  UNL1        0.0523
     14 C         142.1455  137.6979  157.6180 C.ar    1  UNL1        0.1579
     15 C         140.8154  137.7141  156.9249 C.ar    1  UNL1        0.1356
     16 N         139.5781  138.0901  157.6850 N.ar    1  UNL1       -0.2391
     17 C         139.6709  138.4498  159.1382 C.ar    1  UNL1        0.1006
     18 C         141.0010  138.4336  159.8313 C.ar    1  UNL1        0.0400
     19 C         142.2383  138.0576  159.0712 C.ar    1  UNL1        0.0416
     20 C         143.4955  135.9627  156.2337 C.3     1  UNL1        0.2525
     21 O         143.3828  137.3219  156.8579 O.3     1  UNL1       -0.4699
     22 N         139.6073  137.6105  164.7690 N.am    1  UNL1       -0.2692
     23 C         138.5289  138.2934  165.5568 C.2     1  UNL1        0.2277
     24 C         137.7391  137.5221  166.5723 C.3     1  UNL1        0.0950
     25 O         138.2402  139.7476  165.3291 O.2     1  UNL1       -0.2747
     26 H         139.7967  136.6560  164.9184 H       1  UNL1        0.1563
@<TRIPOS>BOND
     1    20    21    1
     2    21    14    1
     3    14    15   ar
     4    15    16   ar
     5    16    17   ar
     6    17    18   ar
     7    18     1    1
     8     1     2   ar
     9     2     3   ar
    10     3    22    1
    11    22    23   am
    12    23    24    1
    13    23    25    2
    14     3     4   ar
    15     4     5   ar
    16     5     7    1
    17     7     8   ar
    18     8     9   ar
    19     9    10    1
    20     9    11   ar
    21    11    12   ar
    22    12    13    1
    23     5     6   ar
    24    18    19   ar
    25    19    14   ar
    26     6     1   ar
    27    12     7   ar
    28    22    26    1
@<TRIPOS>MOLECULE
*****
 26 28 0 0 0
SMALL
GASTEIGER

@<TRIPOS>ATOM
      1 C         140.8007  141.6120  165.3531 C.ar    1  UNL1        0.0888
      2 C         140.6324  143.0155  164.8514 C.ar    1  UNL1        0.0538
      3 C         141.0997  143.3806  163.4736 C.ar    1  UNL1        0.1388
      4 N         141.7351  142.3421  162.5974 N.ar    1  UNL1       -0.1948
      5 C         141.9034  140.9385  163.0991 C.ar    1  UNL1        0.2539
      6 N         141.4361  140.5734  164.4769 N.ar    1  UNL1       -0.2098
      7 N         142.5388  139.9000  162.2229 N.ar    1  UNL1       -0.2008
      8 N         142.0098  139.4136  160.9063 N.ar    1  UNL1       -0.1673
      9 C         142.9589  138.3785  160.3792 C.ar    1  UNL1        0.0806
     10 C         142.8172  137.6285  159.0879 C.3     1  UNL1        0.0540
     11 C         144.0745  138.2252  161.3701 C.ar    1  UNL1        0.0313
     12 C         143.8149  139.1655  162.5095 C.ar    1  UNL1        0.0651
     13 C         144.6796  139.3405  163.7227 C.3     1  UNL1        0.0523
     14 C         138.8243  139.8181  168.2901 C.ar    1  UNL1        0.1579
     15 C         139.3990  140.5166  169.4865 C.ar    1  UNL1        0.1356
     16 N         140.4410  141.5803  169.3052 N.ar    1  UNL1       -0.2391
     17 C         140.9082  141.9454  167.9274 C.ar    1  UNL1        0.1006
     18 C         140.3335  141.2469  166.7310 C.ar    1  UNL1        0.0400
     19 C         139.2915  140.1832  166.9123 C.ar    1  UNL1        0.0416
     20 C         137.2266  138.0375  167.2767 C.3     1  UNL1        0.2525
     21 O         137.7823  138.7544  168.4714 O.3     1  UNL1       -0.4699
     22 N         140.9314  144.7842  162.9719 N.am    1  UNL1       -0.2692
     23 C         139.7746  145.1287  162.0813 C.2     1  UNL1        0.2277
     24 C         139.6064  146.5323  161.5797 C.3     1  UNL1        0.0950
     25 O         138.7861  144.0698  161.6924 O.2     1  UNL1       -0.2747
     26 H         141.5802  145.4792  163.2272 H       1  UNL1        0.1563
@<TRIPOS>BOND
     1    20    21    1
     2    21    14    1
     3    14    15   ar
     4    15    16   ar
     5    16    17   ar
     6    17    18   ar
     7    18     1    1
     8     1     2   ar
     9     2     3   ar
    10     3    22    1
    11    22    23   am
    12    23    24    1
    13    23    25    2
    14     3     4   ar
    15     4     5   ar
    16     5     7    1
    17     7     8   ar
    18     8     9   ar
    19     9    10    1
    20     9    11   ar
    21    11    12   ar
    22    12    13    1
    23     5     6   ar
    24    18    19   ar
    25    19    14   ar
    26     6     1   ar
    27    12     7   ar
    28    22    26    1
@<TRIPOS>MOLECULE
*****
 26 28 0 0 0
SMALL
GASTEIGER

@<TRIPOS>ATOM
      1 C         140.6465  142.2939  163.1740 C.ar    1  UNL1        0.0888
      2 C         141.2485  141.1187  162.4624 C.ar    1  UNL1        0.0538
      3 C         141.5283  139.8503  163.2128 C.ar    1  UNL1        0.1388
      4 N         141.2060  139.7573  164.6748 N.ar    1  UNL1       -0.1948
      5 C         140.6040  140.9325  165.3864 C.ar    1  UNL1        0.2539
      6 N         140.3243  142.2008  164.6361 N.ar    1  UNL1       -0.2098
      7 N         140.2817  140.8395  166.8485 N.ar    1  UNL1       -0.2008
      8 N         140.9334  141.6261  167.9468 N.ar    1  UNL1       -0.1673
      9 C         140.3056  141.2162  169.2460 C.ar    1  UNL1        0.0806
     10 C         140.6561  141.7522  170.6024 C.3     1  UNL1        0.0540
     11 C         139.2659  140.1762  168.9506 C.ar    1  UNL1        0.0313
     12 C         139.2511  139.9434  167.4688 C.ar    1  UNL1        0.0651
     13 C         138.3618  138.9830  166.7361 C.3     1  UNL1        0.0523
     14 C         140.9237  145.1984  160.4838 C.ar    1  UNL1        0.1579
     15 C         139.8073  146.0989  160.9229 C.ar    1  UNL1        0.1356
     16 N         138.9707  145.7311  162.1123 N.ar    1  UNL1       -0.2391
     17 C         139.2505  144.4628  162.8627 C.ar    1  UNL1        0.1006
     18 C         140.3668  143.5623  162.4236 C.ar    1  UNL1        0.0400
     19 C         141.2034  143.9301  161.2342 C.ar    1  UNL1        0.0416
     20 C         142.1331  144.5192  158.2870 C.3     1  UNL1        0.2525
     21 O         141.7603  145.5662  159.2943 O.3     1  UNL1       -0.4699
     22 N         142.1303  138.6751  162.5012 N.am    1  UNL1       -0.2692
     23 C         143.5403  138.7470  161.9944 C.2     1  UNL1        0.2277
     24 C         144.1423  137.5718  161.2828 C.3     1  UNL1        0.0950
     25 O         144.3482  139.9941  162.1992 O.2     1  UNL1       -0.2747
     26 H         141.6000  137.8566  162.3668 H       1  UNL1        0.1563
@<TRIPOS>BOND
     1    20    21    1
     2    21    14    1
     3    14    15   ar
     4    15    16   ar
     5    16    17   ar
     6    17    18   ar
     7    18     1    1
     8     1     2   ar
     9     2     3   ar
    10     3    22    1
    11    22    23   am
    12    23    24    1
    13    23    25    2
    14     3     4   ar
    15     4     5   ar
    16     5     7    1
    17     7     8   ar
    18     8     9   ar
    19     9    10    1
    20     9    11   ar
    21    11    12   ar
    22    12    13    1
    23     5     6   ar
    24    18    19   ar
    25    19    14   ar
    26     6     1   ar
    27    12     7   ar
    28    22    26    1
@<TRIPOS>MOLECULE
*****
 26 28 0 0 0
SMALL
GASTEIGER

@<TRIPOS>ATOM
      1 C         139.1624  141.7969  160.6954 C.ar    1  UNL1        0.0888
      2 C         140.0229  142.9552  161.1050 C.ar    1  UNL1        0.0538
      3 C         140.5361  143.0478  162.5115 C.ar    1  UNL1        0.1388
      4 N         140.1888  141.9821  163.5083 N.ar    1  UNL1       -0.1948
      5 C         139.3282  140.8238  163.0986 C.ar    1  UNL1        0.2539
      6 N         138.8151  140.7312  161.6922 N.ar    1  UNL1       -0.2098
      7 N         138.9808  139.7581  164.0954 N.ar    1  UNL1       -0.2008
      8 N         138.2153  139.9585  165.3697 N.ar    1  UNL1       -0.1673
      9 C         138.0993  138.6291  166.0548 C.ar    1  UNL1        0.0806
     10 C         137.4104  138.3677  167.3614 C.3     1  UNL1        0.0540
     11 C         138.7932  137.6071  165.2039 C.ar    1  UNL1        0.0313
     12 C         139.3380  138.3048  163.9930 C.ar    1  UNL1        0.0651
     13 C         140.1053  137.6621  162.8758 C.3     1  UNL1        0.0523
     14 C         138.3707  142.7403  156.9227 C.ar    1  UNL1        0.1579
     15 C         137.6230  141.5191  156.4761 C.ar    1  UNL1        0.1356
     16 N         137.3884  140.3905  157.4359 N.ar    1  UNL1       -0.2391
     17 C         137.9015  140.4830  158.8423 C.ar    1  UNL1        0.1006
     18 C         138.6493  141.7042  159.2889 C.ar    1  UNL1        0.0400
     19 C         138.8839  142.8329  158.3291 C.ar    1  UNL1        0.0416
     20 C         137.4408  144.5517  155.3091 C.3     1  UNL1        0.2525
     21 O         138.6053  143.8689  155.9629 O.3     1  UNL1       -0.4699
     22 N         141.3966  144.2061  162.9212 N.am    1  UNL1       -0.2692
     23 C         142.8866  144.0467  162.9884 C.2     1  UNL1        0.2277
     24 C         143.7471  145.2050  163.3980 C.3     1  UNL1        0.0950
     25 O         143.5161  142.7290  162.6459 O.2     1  UNL1       -0.2747
     26 H         140.9835  145.0710  163.1459 H       1  UNL1        0.1563
@<TRIPOS>BOND
     1    20    21    1
     2    21    14    1
     3    14    15   ar
     4    15    16   ar
     5    16    17   ar
     6    17    18   ar
     7    18     1    1
     8     1     2   ar
     9     2     3   ar
    10     3    22    1
    11    22    23   am
    12    23    24    1
    13    23    25    2
    14     3     4   ar
    15     4     5   ar
    16     5     7    1
    17     7     8   ar
    18     8     9   ar
    19     9    10    1
    20     9    11   ar
    21    11    12   ar
    22    12    13    1
    23     5     6   ar
    24    18    19   ar
    25    19    14   ar
    26     6     1   ar
    27    12     7   ar
    28    22    26    1
@<TRIPOS>MOLECULE
*****
 26 28 0 0 0
SMALL
GASTEIGER

@<TRIPOS>ATOM
      1 C         140.4661  141.7055  165.9601 C.ar    1  UNL1        0.0888
      2 C         140.4047  143.1230  165.4734 C.ar    1  UNL1        0.0538
      3 C         140.5383  143.4197  164.0091 C.ar    1  UNL1        0.1388
      4 N         140.7333  142.2988  163.0315 N.ar    1  UNL1       -0.1948
      5 C         140.7947  140.8813  163.5182 C.ar    1  UNL1        0.2539
      6 N         140.6611  140.5846  164.9825 N.ar    1  UNL1       -0.2098
      7 N         140.9897  139.7604  162.5406 N.ar    1  UNL1       -0.2008
      8 N         142.2604  139.4371  161.8120 N.ar    1  UNL1       -0.1673
      9 C         142.0043  138.2429  160.9411 C.ar    1  UNL1        0.0806
     10 C         143.0020  137.5799  160.0383 C.3     1  UNL1        0.0540
     11 C         140.5754  137.8283  161.1314 C.ar    1  UNL1        0.0313
     12 C         139.9484  138.7662  162.1200 C.ar    1  UNL1        0.0651
     13 C         138.5291  138.7181  162.6031 C.3     1  UNL1        0.0523
     14 C         140.8936  141.9795  169.8961 C.ar    1  UNL1        0.1579
     15 C         140.0653  140.8154  170.3529 C.ar    1  UNL1        0.1356
     16 N         139.3705  139.9481  169.3455 N.ar    1  UNL1       -0.2391
     17 C         139.5041  140.2447  167.8812 C.ar    1  UNL1        0.1006
     18 C         140.3324  141.4088  167.4244 C.ar    1  UNL1        0.0400
     19 C         141.0272  142.2762  168.4318 C.ar    1  UNL1        0.0416
     20 C         142.9959  143.3031  170.6568 C.3     1  UNL1        0.2525
     21 O         141.5884  142.8469  170.9035 O.3     1  UNL1       -0.4699
     22 N         140.4769  144.8372  163.5224 N.am    1  UNL1       -0.2692
     23 C         139.6589  145.1801  162.3127 C.2     1  UNL1        0.2277
     24 C         139.5974  146.5976  161.8261 C.3     1  UNL1        0.0950
     25 O         138.9022  144.1055  161.5897 O.2     1  UNL1       -0.2747
     26 H         140.9735  145.5425  163.9969 H       1  UNL1        0.1563
@<TRIPOS>BOND
     1    20    21    1
     2    21    14    1
     3    14    15   ar
     4    15    16   ar
     5    16    17   ar
     6    17    18   ar
     7    18     1    1
     8     1     2   ar
     9     2     3   ar
    10     3    22    1
    11    22    23   am
    12    23    24    1
    13    23    25    2
    14     3     4   ar
    15     4     5   ar
    16     5     7    1
    17     7     8   ar
    18     8     9   ar
    19     9    10    1
    20     9    11   ar
    21    11    12   ar
    22    12    13    1
    23     5     6   ar
    24    18    19   ar
    25    19    14   ar
    26     6     1   ar
    27    12     7   ar
    28    22    26    1
@<TRIPOS>MOLECULE
*****
 26 28 0 0 0
SMALL
GASTEIGER

@<TRIPOS>ATOM
      1 C         140.9912  140.6673  166.3788 C.ar    1  UNL1        0.0888
      2 C         140.2687  141.9095  165.9491 C.ar    1  UNL1        0.0538
      3 C         140.2827  142.3247  164.5077 C.ar    1  UNL1        0.1388
      4 N         141.0193  141.4976  163.4961 N.ar    1  UNL1       -0.1948
      5 C         141.7418  140.2553  163.9259 C.ar    1  UNL1        0.2539
      6 N         141.7278  139.8402  165.3672 N.ar    1  UNL1       -0.2098
      7 N         142.4784  139.4282  162.9143 N.ar    1  UNL1       -0.2008
      8 N         141.8968  138.8440  161.6611 N.ar    1  UNL1       -0.1673
      9 C         142.9849  138.0948  160.9505 C.ar    1  UNL1        0.0806
     10 C         142.8436  137.3545  159.6536 C.3     1  UNL1        0.0540
     11 C         144.2389  138.2159  161.7646 C.ar    1  UNL1        0.0313
     12 C         143.9259  139.0400  162.9782 C.ar    1  UNL1        0.0651
     13 C         144.8910  139.4107  164.0650 C.3     1  UNL1        0.0523
     14 C         142.2006  139.2676  169.8900 C.ar    1  UNL1        0.1579
     15 C         140.9493  139.4217  170.7027 C.ar    1  UNL1        0.1356
     16 N         139.7120  139.9910  170.0742 N.ar    1  UNL1       -0.2391
     17 C         139.7260  140.4061  168.6329 C.ar    1  UNL1        0.1006
     18 C         140.9772  140.2521  167.8202 C.ar    1  UNL1        0.0400
     19 C         142.2145  139.6828  168.4487 C.ar    1  UNL1        0.0416
     20 C         143.6040  137.2122  170.6352 C.3     1  UNL1        0.2525
     21 O         143.4379  138.6983  170.5185 O.3     1  UNL1       -0.4699
     22 N         139.5602  143.5670  164.0780 N.am    1  UNL1       -0.2692
     23 C         138.2194  143.4629  163.4135 C.2     1  UNL1        0.2277
     24 C         137.4969  144.7052  162.9838 C.3     1  UNL1        0.0950
     25 O         137.6013  142.1166  163.1786 O.2     1  UNL1       -0.2747
     26 H         139.9659  144.4507  164.2321 H       1  UNL1        0.1563
@<TRIPOS>BOND
     1    20    21    1
     2    21    14    1
     3    14    15   ar
     4    15    16   ar
     5    16    17   ar
     6    17    18   ar
     7    18     1    1
     8     1     2   ar
     9     2     3   ar
    10     3    22    1
    11    22    23   am
    12    23    24    1
    13    23    25    2
    14     3     4   ar
    15     4     5   ar
    16     5     7    1
    17     7     8   ar
    18     8     9   ar
    19     9    10    1
    20     9    11   ar
    21    11    12   ar
    22    12    13    1
    23     5     6   ar
    24    18    19   ar
    25    19    14   ar
    26     6     1   ar
    27    12     7   ar
    28    22    26    1
