@<TRIPOS>MOLECULE
*****
 24 27 0 0 0
SMALL
GASTEIGER

@<TRIPOS>ATOM
      1 O         138.0975  139.0305  162.6332 O.2     1  UNL1       -0.2526
      2 C         139.5525  138.6776  162.7251 C.2     1  UNL1        0.3039
      3 N         140.2027  138.5198  164.0676 N.am    1  UNL1       -0.2901
      4 N         140.3573  138.4825  161.4744 N.am    1  UNL1       -0.2641
      5 C         139.7071  138.6403  160.1318 C.3     1  UNL1        0.0969
      6 C         140.5119  138.4452  158.8811 C.3     1  UNL1        0.0460
      7 C         141.9669  138.0923  158.9730 C.3     1  UNL1        0.1103
      8 C         142.6171  137.9345  160.3155 C.3     1  UNL1        0.0460
      9 C         141.8123  138.1296  161.5662 C.3     1  UNL1        0.0969
     10 H         141.1577  138.2882  164.1278 H       1  UNL1        0.1509
     11 N         142.7718  137.8972  157.7223 N.ar    1  UNL1       -0.2319
     12 C         143.0092  136.5926  157.0211 C.ar    1  UNL1        0.1971
     13 N         143.8646  136.8616  155.8187 N.ar    1  UNL1       -0.2007
     14 C         144.1558  138.3324  155.7766 C.ar    1  UNL1        0.2210
     15 N         143.4804  138.9725  156.9531 N.ar    1  UNL1       -0.1452
     16 C         139.3979  138.7149  165.3182 C.3     1  UNL1        0.0774
     17 C         138.2393  138.3316  166.1904 C.3     1  UNL1        0.0259
     18 C         139.1626  139.4360  166.6123 C.3     1  UNL1        0.0420
     19 C         139.5598  140.4900  167.6030 C.ar    1  UNL1       -0.0208
     20 C         140.2327  141.7455  167.1331 C.ar    1  UNL1       -0.0042
     21 C         140.6299  142.7994  168.1238 C.ar    1  UNL1       -0.0003
     22 C         140.3542  142.5977  169.5844 C.ar    1  UNL1       -0.0000
     23 C         139.6813  141.3422  170.0543 C.ar    1  UNL1       -0.0003
     24 C         139.2841  140.2883  169.0636 C.ar    1  UNL1       -0.0042
@<TRIPOS>BOND
     1     1     2    2
     2     2     3   am
     3     3    16    1
     4    16    17    1
     5    17    18    1
     6    18    19    1
     7    19    20   ar
     8    20    21   ar
     9    21    22   ar
    10    22    23   ar
    11    23    24   ar
    12     2     4   am
    13     4     5    1
    14     5     6    1
    15     6     7    1
    16     7    11    1
    17    11    12   ar
    18    12    13   ar
    19    13    14   ar
    20    14    15   ar
    21     7     8    1
    22     8     9    1
    23    18    16    1
    24    24    19   ar
    25     9     4    1
    26    15    11   ar
    27     3    10    1
@<TRIPOS>MOLECULE
*****
 24 27 0 0 0
SMALL
GASTEIGER

@<TRIPOS>ATOM
      1 O         140.8324  142.3375  165.4619 O.2     1  UNL1       -0.2526
      2 C         140.0844  141.9603  164.2175 C.2     1  UNL1        0.3039
      3 N         139.0849  140.8424  164.2531 N.am    1  UNL1       -0.2901
      4 N         140.3360  142.7011  162.9377 N.am    1  UNL1       -0.2641
      5 C         141.3355  143.8190  162.9022 C.3     1  UNL1        0.0969
      6 C         141.5870  144.5598  161.6223 C.3     1  UNL1        0.0460
      7 C         140.8390  144.1826  160.3780 C.3     1  UNL1        0.1103
      8 C         139.8396  143.0647  160.4135 C.3     1  UNL1        0.0460
      9 C         139.5880  142.3239  161.6934 C.3     1  UNL1        0.0969
     10 H         138.5940  140.5949  163.4364 H       1  UNL1        0.1509
     11 N         141.0906  144.9233  159.0981 N.ar    1  UNL1       -0.2319
     12 C         140.0677  145.6745  158.2985 C.ar    1  UNL1        0.1971
     13 N         140.7541  146.2584  157.0993 N.ar    1  UNL1       -0.2007
     14 C         142.2012  145.8681  157.1579 C.ar    1  UNL1        0.2210
     15 N         142.4092  145.0430  158.3932 N.ar    1  UNL1       -0.1452
     16 C         138.8334  140.1017  165.5329 C.3     1  UNL1        0.0774
     17 C         138.0323  139.1110  166.3246 C.3     1  UNL1        0.0259
     18 C         139.1989  139.8094  166.9580 C.3     1  UNL1        0.0420
     19 C         140.0835  140.0438  168.1466 C.ar    1  UNL1       -0.0208
     20 C         139.4777  140.3658  169.4805 C.ar    1  UNL1       -0.0042
     21 C         140.3623  140.6002  170.6690 C.ar    1  UNL1       -0.0003
     22 C         141.8527  140.5127  170.5235 C.ar    1  UNL1       -0.0000
     23 C         142.4584  140.1907  169.1896 C.ar    1  UNL1       -0.0003
     24 C         141.5738  139.9563  168.0012 C.ar    1  UNL1       -0.0042
@<TRIPOS>BOND
     1     1     2    2
     2     2     3   am
     3     3    16    1
     4    16    17    1
     5    17    18    1
     6    18    19    1
     7    19    20   ar
     8    20    21   ar
     9    21    22   ar
    10    22    23   ar
    11    23    24   ar
    12     2     4   am
    13     4     5    1
    14     5     6    1
    15     6     7    1
    16     7    11    1
    17    11    12   ar
    18    12    13   ar
    19    13    14   ar
    20    14    15   ar
    21     7     8    1
    22     8     9    1
    23    18    16    1
    24    24    19   ar
    25     9     4    1
    26    15    11   ar
    27     3    10    1
@<TRIPOS>MOLECULE
*****
 24 27 0 0 0
SMALL
GASTEIGER

@<TRIPOS>ATOM
      1 O         141.9980  142.5228  165.7693 O.2     1  UNL1       -0.2526
      2 C         142.2358  141.8434  164.4532 C.2     1  UNL1        0.3039
      3 N         142.6646  140.4064  164.4177 N.am    1  UNL1       -0.2901
      4 N         142.0449  142.6010  163.1727 N.am    1  UNL1       -0.2641
      5 C         141.6161  144.0380  163.2083 C.3     1  UNL1        0.0969
      6 C         141.4251  144.7956  161.9279 C.3     1  UNL1        0.0460
      7 C         141.6629  144.1162  160.6118 C.3     1  UNL1        0.1103
      8 C         142.0917  142.6792  160.5763 C.3     1  UNL1        0.0460
      9 C         142.2827  141.9216  161.8567 C.3     1  UNL1        0.0969
     10 H         142.8207  139.9605  163.5539 H       1  UNL1        0.1509
     11 N         141.4719  144.8737  159.3314 N.ar    1  UNL1       -0.2319
     12 C         140.1914  145.4940  158.8565 C.ar    1  UNL1        0.1971
     13 N         140.4560  146.1477  157.5326 N.ar    1  UNL1       -0.2007
     14 C         141.9001  145.9314  157.1892 C.ar    1  UNL1        0.2210
     15 N         142.5279  145.1441  158.3009 N.ar    1  UNL1       -0.1452
     16 C         142.8556  139.6488  165.6981 C.3     1  UNL1        0.0774
     17 C         143.4772  138.5127  166.4549 C.3     1  UNL1        0.0259
     18 C         142.5648  139.4728  167.1591 C.3     1  UNL1        0.0420
     19 C         141.8700  139.9255  168.4091 C.ar    1  UNL1       -0.0208
     20 C         140.3767  140.0650  168.4286 C.ar    1  UNL1       -0.0042
     21 C         139.6821  140.5177  169.6786 C.ar    1  UNL1       -0.0003
     22 C         140.4807  140.8308  170.9091 C.ar    1  UNL1       -0.0000
     23 C         141.9741  140.6912  170.8896 C.ar    1  UNL1       -0.0003
     24 C         142.6687  140.2386  169.6396 C.ar    1  UNL1       -0.0042
@<TRIPOS>BOND
     1     1     2    2
     2     2     3   am
     3     3    16    1
     4    16    17    1
     5    17    18    1
     6    18    19    1
     7    19    20   ar
     8    20    21   ar
     9    21    22   ar
    10    22    23   ar
    11    23    24   ar
    12     2     4   am
    13     4     5    1
    14     5     6    1
    15     6     7    1
    16     7    11    1
    17    11    12   ar
    18    12    13   ar
    19    13    14   ar
    20    14    15   ar
    21     7     8    1
    22     8     9    1
    23    18    16    1
    24    24    19   ar
    25     9     4    1
    26    15    11   ar
    27     3    10    1
@<TRIPOS>MOLECULE
*****
 24 27 0 0 0
SMALL
GASTEIGER

@<TRIPOS>ATOM
      1 O         138.1202  141.8246  164.5022 O.2     1  UNL1       -0.2526
      2 C         138.2461  140.6251  163.6103 C.2     1  UNL1        0.3039
      3 N         138.3272  139.2515  164.2076 N.am    1  UNL1       -0.2901
      4 N         138.2909  140.7992  162.1212 N.am    1  UNL1       -0.2641
      5 C         138.2098  142.1728  161.5239 C.3     1  UNL1        0.0969
      6 C         138.2546  142.3469  160.0347 C.3     1  UNL1        0.0460
      7 C         138.3805  141.1474  159.1428 C.3     1  UNL1        0.1103
      8 C         138.4616  139.7739  159.7401 C.3     1  UNL1        0.0460
      9 C         138.4168  139.5998  161.2293 C.3     1  UNL1        0.0969
     10 H         138.4098  138.4643  163.6223 H       1  UNL1        0.1509
     11 N         138.4253  141.3215  157.6536 N.ar    1  UNL1       -0.2319
     12 C         137.3170  141.8539  156.7944 C.ar    1  UNL1        0.1971
     13 N         137.7929  141.8552  155.3719 N.ar    1  UNL1       -0.2007
     14 C         139.1955  141.3237  155.3520 C.ar    1  UNL1        0.2210
     15 N         139.5862  140.9938  156.7621 N.ar    1  UNL1       -0.1452
     16 C         138.2824  139.0774  165.6968 C.3     1  UNL1        0.0774
     17 C         137.7746  138.3471  166.9046 C.3     1  UNL1        0.0259
     18 C         138.7126  139.5061  167.0683 C.3     1  UNL1        0.0420
     19 C         139.5026  140.4229  167.9547 C.ar    1  UNL1       -0.0208
     20 C         140.4685  141.3998  167.3527 C.ar    1  UNL1       -0.0042
     21 C         141.2584  142.3165  168.2391 C.ar    1  UNL1       -0.0003
     22 C         141.0823  142.2562  169.7275 C.ar    1  UNL1       -0.0000
     23 C         140.1164  141.2793  170.3295 C.ar    1  UNL1       -0.0003
     24 C         139.3265  140.3627  169.4431 C.ar    1  UNL1       -0.0042
@<TRIPOS>BOND
     1     1     2    2
     2     2     3   am
     3     3    16    1
     4    16    17    1
     5    17    18    1
     6    18    19    1
     7    19    20   ar
     8    20    21   ar
     9    21    22   ar
    10    22    23   ar
    11    23    24   ar
    12     2     4   am
    13     4     5    1
    14     5     6    1
    15     6     7    1
    16     7    11    1
    17    11    12   ar
    18    12    13   ar
    19    13    14   ar
    20    14    15   ar
    21     7     8    1
    22     8     9    1
    23    18    16    1
    24    24    19   ar
    25     9     4    1
    26    15    11   ar
    27     3    10    1
@<TRIPOS>MOLECULE
*****
 24 27 0 0 0
SMALL
GASTEIGER

@<TRIPOS>ATOM
      1 O         137.9967  143.4285  155.9569 O.2     1  UNL1       -0.2526
      2 C         138.0474  142.6445  157.2348 C.2     1  UNL1        0.3039
      3 N         137.2007  141.4168  157.3956 N.am    1  UNL1       -0.2901
      4 N         138.9448  143.0882  158.3518 N.am    1  UNL1       -0.2641
      5 C         139.7915  144.3160  158.1910 C.3     1  UNL1        0.0969
      6 C         140.6890  144.7597  159.3080 C.3     1  UNL1        0.0460
      7 C         140.7397  143.9757  160.5859 C.3     1  UNL1        0.1103
      8 C         139.8930  142.7480  160.7467 C.3     1  UNL1        0.0460
      9 C         138.9955  142.3043  159.6296 C.3     1  UNL1        0.0969
     10 H         137.2340  140.9023  158.2343 H       1  UNL1        0.1509
     11 N         141.6371  144.4194  161.7029 N.ar    1  UNL1       -0.2319
     12 C         141.2021  145.1060  162.9636 C.ar    1  UNL1        0.1971
     13 N         142.4232  145.3654  163.7952 N.ar    1  UNL1       -0.2007
     14 C         143.6129  144.8391  163.0485 C.ar    1  UNL1        0.2210
     15 N         143.1271  144.2545  161.7553 N.ar    1  UNL1       -0.1452
     16 C         136.3033  140.9731  156.2786 C.3     1  UNL1        0.0774
     17 C         136.0988  140.6422  154.8299 C.3     1  UNL1        0.0259
     18 C         134.9534  140.5355  155.7925 C.3     1  UNL1        0.0420
     19 C         133.5127  140.2212  156.0677 C.ar    1  UNL1       -0.0208
     20 C         133.1415  138.9346  156.7435 C.ar    1  UNL1       -0.0042
     21 C         131.7009  138.6204  157.0186 C.ar    1  UNL1       -0.0003
     22 C         130.6314  139.5928  156.6180 C.ar    1  UNL1       -0.0000
     23 C         131.0025  140.8795  155.9422 C.ar    1  UNL1       -0.0003
     24 C         132.4432  141.1937  155.6671 C.ar    1  UNL1       -0.0042
@<TRIPOS>BOND
     1     1     2    2
     2     2     3   am
     3     3    16    1
     4    16    17    1
     5    17    18    1
     6    18    19    1
     7    19    20   ar
     8    20    21   ar
     9    21    22   ar
    10    22    23   ar
    11    23    24   ar
    12     2     4   am
    13     4     5    1
    14     5     6    1
    15     6     7    1
    16     7    11    1
    17    11    12   ar
    18    12    13   ar
    19    13    14   ar
    20    14    15   ar
    21     7     8    1
    22     8     9    1
    23    18    16    1
    24    24    19   ar
    25     9     4    1
    26    15    11   ar
    27     3    10    1
@<TRIPOS>MOLECULE
*****
 24 27 0 0 0
SMALL
GASTEIGER

@<TRIPOS>ATOM
      1 O         142.0516  138.1741  164.6360 O.2     1  UNL1       -0.2526
      2 C         141.5687  139.3578  163.8513 C.2     1  UNL1        0.3039
      3 N         140.4383  140.1936  164.3741 N.am    1  UNL1       -0.2901
      4 N         142.2163  139.7056  162.5438 N.am    1  UNL1       -0.2641
      5 C         143.3469  138.8697  162.0210 C.3     1  UNL1        0.0969
      6 C         143.9945  139.2175  160.7134 C.3     1  UNL1        0.0460
      7 C         143.5116  140.4012  159.9287 C.3     1  UNL1        0.1103
      8 C         142.3811  141.2371  160.4515 C.3     1  UNL1        0.0460
      9 C         141.7335  140.8892  161.7591 C.3     1  UNL1        0.0969
     10 H         140.1213  140.9705  163.8591 H       1  UNL1        0.1509
     11 N         144.1592  140.7490  158.6212 N.ar    1  UNL1       -0.2319
     12 C         144.6851  142.0979  158.2290 C.ar    1  UNL1        0.1971
     13 N         145.2456  141.9916  156.8417 N.ar    1  UNL1       -0.2007
     14 C         145.0660  140.5769  156.3764 C.ar    1  UNL1        0.2210
     15 N         144.3945  139.8090  157.4762 N.ar    1  UNL1       -0.1452
     16 C         139.7906  139.8458  165.6816 C.3     1  UNL1        0.0774
     17 C         138.6407  139.2608  166.4467 C.3     1  UNL1        0.0259
     18 C         139.8189  139.8285  167.1812 C.3     1  UNL1        0.0420
     19 C         140.5156  140.1462  168.4712 C.ar    1  UNL1       -0.0208
     20 C         141.9584  139.7795  168.6544 C.ar    1  UNL1       -0.0042
     21 C         142.6550  140.0972  169.9443 C.ar    1  UNL1       -0.0003
     22 C         141.9086  140.7815  171.0510 C.ar    1  UNL1       -0.0000
     23 C         140.4658  141.1482  170.8677 C.ar    1  UNL1       -0.0003
     24 C         139.7692  140.8305  169.5778 C.ar    1  UNL1       -0.0042
@<TRIPOS>BOND
     1     1     2    2
     2     2     3   am
     3     3    16    1
     4    16    17    1
     5    17    18    1
     6    18    19    1
     7    19    20   ar
     8    20    21   ar
     9    21    22   ar
    10    22    23   ar
    11    23    24   ar
    12     2     4   am
    13     4     5    1
    14     5     6    1
    15     6     7    1
    16     7    11    1
    17    11    12   ar
    18    12    13   ar
    19    13    14   ar
    20    14    15   ar
    21     7     8    1
    22     8     9    1
    23    18    16    1
    24    24    19   ar
    25     9     4    1
    26    15    11   ar
    27     3    10    1
@<TRIPOS>MOLECULE
*****
 24 27 0 0 0
SMALL
GASTEIGER

@<TRIPOS>ATOM
      1 O         140.9848  143.3948  163.2492 O.2     1  UNL1       -0.2526
      2 C         141.5742  142.0525  162.9316 C.2     1  UNL1        0.3039
      3 N         141.3819  140.9057  163.8792 N.am    1  UNL1       -0.2901
      4 N         142.3558  141.8570  161.6664 N.am    1  UNL1       -0.2641
      5 C         142.5480  143.0038  160.7187 C.3     1  UNL1        0.0969
      6 C         143.3297  142.8083  159.4535 C.3     1  UNL1        0.0460
      7 C         143.9191  141.4659  159.1359 C.3     1  UNL1        0.1103
      8 C         143.7268  140.3192  160.0835 C.3     1  UNL1        0.0460
      9 C         142.9452  140.5147  161.3487 C.3     1  UNL1        0.0969
     10 H         141.7687  140.0247  163.6707 H       1  UNL1        0.1509
     11 N         144.7007  141.2704  157.8706 N.ar    1  UNL1       -0.2319
     12 C         145.6234  142.2713  157.2407 C.ar    1  UNL1        0.1971
     13 N         146.1898  141.6592  155.9939 N.ar    1  UNL1       -0.2007
     14 C         145.6172  140.2799  155.8533 C.ar    1  UNL1        0.2210
     15 N         144.6969  140.0397  157.0132 N.ar    1  UNL1       -0.1452
     16 C         140.6003  141.1013  165.1444 C.3     1  UNL1        0.0774
     17 C         139.3036  141.0274  165.8948 C.3     1  UNL1        0.0259
     18 C         140.5432  141.5137  166.5854 C.3     1  UNL1        0.0420
     19 C         141.2259  142.0327  167.8162 C.ar    1  UNL1       -0.0208
     20 C         142.6417  141.6355  168.1124 C.ar    1  UNL1       -0.0042
     21 C         143.3243  142.1545  169.3430 C.ar    1  UNL1       -0.0003
     22 C         142.5912  143.0706  170.2775 C.ar    1  UNL1       -0.0000
     23 C         141.1754  143.4678  169.9813 C.ar    1  UNL1       -0.0003
     24 C         140.4928  142.9488  168.7506 C.ar    1  UNL1       -0.0042
@<TRIPOS>BOND
     1     1     2    2
     2     2     3   am
     3     3    16    1
     4    16    17    1
     5    17    18    1
     6    18    19    1
     7    19    20   ar
     8    20    21   ar
     9    21    22   ar
    10    22    23   ar
    11    23    24   ar
    12     2     4   am
    13     4     5    1
    14     5     6    1
    15     6     7    1
    16     7    11    1
    17    11    12   ar
    18    12    13   ar
    19    13    14   ar
    20    14    15   ar
    21     7     8    1
    22     8     9    1
    23    18    16    1
    24    24    19   ar
    25     9     4    1
    26    15    11   ar
    27     3    10    1
@<TRIPOS>MOLECULE
*****
 24 27 0 0 0
SMALL
GASTEIGER

@<TRIPOS>ATOM
      1 O         139.7178  137.7960  164.3347 O.2     1  UNL1       -0.2526
      2 C         139.1470  139.1088  163.8865 C.2     1  UNL1        0.3039
      3 N         138.7599  140.1438  164.9009 N.am    1  UNL1       -0.2901
      4 N         138.9633  139.3865  162.4240 N.am    1  UNL1       -0.2641
      5 C         139.3504  138.3515  161.4096 C.3     1  UNL1        0.0969
      6 C         139.1667  138.6292  159.9470 C.3     1  UNL1        0.0460
      7 C         138.5959  139.9420  159.4988 C.3     1  UNL1        0.1103
      8 C         138.2089  140.9770  160.5132 C.3     1  UNL1        0.0460
      9 C         138.3926  140.6993  161.9758 C.3     1  UNL1        0.0969
     10 H         138.3853  141.0054  164.6067 H       1  UNL1        0.1509
     11 N         138.4123  140.2198  158.0363 N.ar    1  UNL1       -0.2319
     12 C         137.8640  141.4826  157.4407 C.ar    1  UNL1        0.1971
     13 N         137.8575  141.3268  155.9488 N.ar    1  UNL1       -0.2007
     14 C         138.4017  139.9676  155.6223 C.ar    1  UNL1        0.2210
     15 N         138.7446  139.2835  156.9125 N.ar    1  UNL1       -0.1452
     16 C         138.9436  139.8660  166.3635 C.3     1  UNL1        0.0774
     17 C         138.4548  139.2477  167.6397 C.3     1  UNL1        0.0259
     18 C         139.7505  140.0033  167.6204 C.3     1  UNL1        0.0420
     19 C         140.9645  140.5187  168.3350 C.ar    1  UNL1       -0.0208
     20 C         141.5417  139.7477  169.4850 C.ar    1  UNL1       -0.0042
     21 C         142.7556  140.2632  170.1995 C.ar    1  UNL1       -0.0003
     22 C         143.3924  141.5497  169.7641 C.ar    1  UNL1       -0.0000
     23 C         142.8152  142.3207  168.6142 C.ar    1  UNL1       -0.0003
     24 C         141.6012  141.8052  167.8997 C.ar    1  UNL1       -0.0042
@<TRIPOS>BOND
     1     1     2    2
     2     2     3   am
     3     3    16    1
     4    16    17    1
     5    17    18    1
     6    18    19    1
     7    19    20   ar
     8    20    21   ar
     9    21    22   ar
    10    22    23   ar
    11    23    24   ar
    12     2     4   am
    13     4     5    1
    14     5     6    1
    15     6     7    1
    16     7    11    1
    17    11    12   ar
    18    12    13   ar
    19    13    14   ar
    20    14    15   ar
    21     7     8    1
    22     8     9    1
    23    18    16    1
    24    24    19   ar
    25     9     4    1
    26    15    11   ar
    27     3    10    1
@<TRIPOS>MOLECULE
*****
 24 27 0 0 0
SMALL
GASTEIGER

@<TRIPOS>ATOM
      1 O         137.7198  139.9602  162.6604 O.2     1  UNL1       -0.2526
      2 C         138.7171  141.0701  162.8149 C.2     1  UNL1        0.3039
      3 N         139.3658  141.3156  164.1449 N.am    1  UNL1       -0.2901
      4 N         139.0656  141.9343  161.6395 N.am    1  UNL1       -0.2641
      5 C         138.4168  141.6887  160.3095 C.3     1  UNL1        0.0969
      6 C         138.7654  142.5529  159.1340 C.3     1  UNL1        0.0460
      7 C         139.7626  143.6627  159.2886 C.3     1  UNL1        0.1103
      8 C         140.4113  143.9083  160.6185 C.3     1  UNL1        0.0460
      9 C         140.0628  143.0441  161.7940 C.3     1  UNL1        0.0969
     10 H         140.0203  142.0440  164.2463 H       1  UNL1        0.1509
     11 N         140.1111  144.5269  158.1131 N.ar    1  UNL1       -0.2319
     12 C         141.1836  145.5750  158.0765 C.ar    1  UNL1        0.1971
     13 N         141.1837  146.1906  156.7087 N.ar    1  UNL1       -0.2007
     14 C         140.1112  145.5231  155.8999 C.ar    1  UNL1        0.2210
     15 N         139.4483  144.4948  156.7679 N.ar    1  UNL1       -0.1452
     16 C         139.0173  140.4514  165.3203 C.3     1  UNL1        0.0774
     17 C         138.1447  139.4075  165.9518 C.3     1  UNL1        0.0259
     18 C         139.2863  139.9985  166.7248 C.3     1  UNL1        0.0420
     19 C         140.1007  140.0782  167.9819 C.ar    1  UNL1       -0.0208
     20 C         139.4258  140.3268  169.2983 C.ar    1  UNL1       -0.0042
     21 C         140.2403  140.4065  170.5553 C.ar    1  UNL1       -0.0003
     22 C         141.7296  140.2377  170.4961 C.ar    1  UNL1       -0.0000
     23 C         142.4044  139.9891  169.1798 C.ar    1  UNL1       -0.0003
     24 C         141.5900  139.9094  167.9227 C.ar    1  UNL1       -0.0042
@<TRIPOS>BOND
     1     1     2    2
     2     2     3   am
     3     3    16    1
     4    16    17    1
     5    17    18    1
     6    18    19    1
     7    19    20   ar
     8    20    21   ar
     9    21    22   ar
    10    22    23   ar
    11    23    24   ar
    12     2     4   am
    13     4     5    1
    14     5     6    1
    15     6     7    1
    16     7    11    1
    17    11    12   ar
    18    12    13   ar
    19    13    14   ar
    20    14    15   ar
    21     7     8    1
    22     8     9    1
    23    18    16    1
    24    24    19   ar
    25     9     4    1
    26    15    11   ar
    27     3    10    1
