@<TRIPOS>MOLECULE
*****
 34 37 0 0 0
SMALL
GASTEIGER

@<TRIPOS>ATOM
      1 C         140.4442  142.0621  167.8095 C.3     1  UNL1        0.1219
      2 C         140.5443  142.6245  166.4226 C.ar    1  UNL1       -0.0121
      3 C         139.3269  143.1897  165.7529 C.ar    1  UNL1       -0.0037
      4 C         139.4268  143.7521  164.3660 C.ar    1  UNL1       -0.0003
      5 C         140.7442  143.7494  163.6487 C.ar    1  UNL1        0.0013
      6 C         141.9617  143.1843  164.3184 C.ar    1  UNL1       -0.0003
      7 C         141.8617  142.6218  165.7054 C.ar    1  UNL1       -0.0037
      8 C         140.8442  144.3119  162.2617 C.2     1  UNL1        0.0162
      9 C         141.8327  143.7392  161.2896 C.2     1  UNL1        0.0862
     10 N         141.9327  144.3016  159.9027 N.pl3   1  UNL1       -0.1881
     11 N         142.8049  143.9452  158.7355 N.2     1  UNL1       -0.1584
     12 C         142.4555  144.8601  157.5994 C.2     1  UNL1        0.1807
     13 N         141.3673  145.7819  158.0643 N.pl3   1  UNL1       -0.2959
     14 C         141.0442  145.4367  159.4878 C.3     1  UNL1        0.1920
     15 C         140.0558  146.0094  160.4599 C.2     1  UNL1        0.0156
     16 C         139.9558  145.4470  161.8469 C.2     1  UNL1        0.0002
     17 H         140.9402  146.4893  157.5291 H       1  UNL1        0.1501
     18 C         142.7247  143.4025  170.7681 C.3     1  UNL1        0.1149
     19 N         142.2549  142.5940  169.5951 N.am    1  UNL1       -0.2757
     20 C         143.1262  141.5090  169.0350 C.3     1  UNL1        0.1149
     21 C         140.9140  142.8705  168.9825 C.2     1  UNL1        0.2312
     22 O         140.0428  143.9555  169.5427 O.2     1  UNL1       -0.2745
     23 C         139.8744  140.6911  168.0236 C.3     1  UNL1        0.1413
     24 N         139.5454  140.2238  169.4105 N.3     1  UNL1       -0.3144
     25 H         139.1707  139.2759  169.3699 H       1  UNL1        0.1193
     26 H         138.8509  140.8464  169.8233 H       1  UNL1        0.1193
     27 C         139.6337  139.7875  166.8508 C.2     1  UNL1        0.2406
     28 O         138.2371  139.5625  166.3515 O.2     1  UNL1       -0.2734
     29 N         140.7894  139.1089  166.1772 N.am    1  UNL1       -0.2756
     30 C         140.7039  138.1829  165.0002 C.3     1  UNL1        0.0964
     31 C         142.0953  137.7388  164.6579 C.3     1  UNL1        0.0585
     32 C         143.0405  138.3904  165.6233 C.3     1  UNL1        0.1824
     33 F         144.5311  138.2244  165.6457 F       1  UNL1       -0.2354
     34 C         142.2334  139.2372  166.5622 C.3     1  UNL1        0.1286
@<TRIPOS>BOND
     1    18    19    1
     2    19    20    1
     3    19    21   am
     4    21    22    2
     5     1    21    1
     6     1     2    1
     7     2     3   ar
     8     3     4   ar
     9     4     5   ar
    10     5     8    1
    11     8     9    2
    12     9    10    1
    13    10    11    1
    14    11    12    2
    15    12    13    1
    16    13    14    1
    17    14    15    1
    18    15    16    2
    19     5     6   ar
    20     6     7   ar
    21     1    23    1
    22    23    24    1
    23    23    27    1
    24    27    28    2
    25    27    29   am
    26    29    30    1
    27    30    31    1
    28    31    32    1
    29    32    33    1
    30    32    34    1
    31     7     2   ar
    32    34    29    1
    33    16     8    1
    34    14    10    1
    35    13    17    1
    36    24    25    1
    37    24    26    1
@<TRIPOS>MOLECULE
*****
 34 37 0 0 0
SMALL
GASTEIGER

@<TRIPOS>ATOM
      1 C         142.6406  141.2454  166.9720 C.3     1  UNL1        0.1219
      2 C         142.3520  141.9700  165.6908 C.ar    1  UNL1       -0.0121
      3 C         143.4608  142.6609  164.9537 C.ar    1  UNL1       -0.0037
      4 C         143.1722  143.3855  163.6725 C.ar    1  UNL1       -0.0003
      5 C         141.7748  143.4192  163.1283 C.ar    1  UNL1        0.0013
      6 C         140.6660  142.7283  163.8653 C.ar    1  UNL1       -0.0003
      7 C         140.9546  142.0037  165.1466 C.ar    1  UNL1       -0.0037
      8 C         141.4862  144.1438  161.8469 C.2     1  UNL1        0.0162
      9 C         142.3276  143.8841  160.6325 C.2     1  UNL1        0.0862
     10 N         142.0390  144.6087  159.3512 N.pl3   1  UNL1       -0.1881
     11 N         142.6917  144.5598  158.0016 N.2     1  UNL1       -0.1584
     12 C         141.9651  145.5139  157.1006 C.2     1  UNL1        0.1807
     13 N         140.8634  146.1524  157.8933 N.pl3   1  UNL1       -0.2959
     14 C         140.9090  145.5930  159.2844 C.3     1  UNL1        0.1920
     15 C         140.0677  145.8526  160.4987 C.2     1  UNL1        0.0156
     16 C         140.3563  145.1280  161.7800 C.2     1  UNL1        0.0002
     17 H         140.2228  146.8212  157.5593 H       1  UNL1        0.1501
     18 C         141.3079  142.7155  170.4089 C.3     1  UNL1        0.1149
     19 N         141.3486  141.9770  169.1040 N.am    1  UNL1       -0.2757
     20 C         140.1378  141.2314  168.6262 C.3     1  UNL1        0.1149
     21 C         142.5999  141.9840  168.2770 C.2     1  UNL1        0.2312
     22 O         143.8106  142.7296  168.7549 O.2     1  UNL1       -0.2745
     23 C         142.9700  139.7822  166.9484 C.3     1  UNL1        0.1413
     24 N         143.0222  139.0043  168.2299 N.3     1  UNL1       -0.3144
     25 H         143.2585  138.0327  168.0284 H       1  UNL1        0.1193
     26 H         142.1124  139.0447  168.6894 H       1  UNL1        0.1193
     27 C         143.2472  139.0969  165.6432 C.2     1  UNL1        0.2406
     28 O         144.6450  139.0543  165.1004 O.2     1  UNL1       -0.2734
     29 N         142.1267  138.4541  164.8808 N.am    1  UNL1       -0.2756
     30 C         142.2504  137.7364  163.5695 C.3     1  UNL1        0.0964
     31 C         140.8859  137.2549  163.1740 C.3     1  UNL1        0.0585
     32 C         139.9189  137.6752  164.2410 C.3     1  UNL1        0.1824
     33 F         138.4440  137.4022  164.2512 F       1  UNL1       -0.2354
     34 C         140.6857  138.4163  165.2958 C.3     1  UNL1        0.1286
@<TRIPOS>BOND
     1    18    19    1
     2    19    20    1
     3    19    21   am
     4    21    22    2
     5     1    21    1
     6     1     2    1
     7     2     3   ar
     8     3     4   ar
     9     4     5   ar
    10     5     8    1
    11     8     9    2
    12     9    10    1
    13    10    11    1
    14    11    12    2
    15    12    13    1
    16    13    14    1
    17    14    15    1
    18    15    16    2
    19     5     6   ar
    20     6     7   ar
    21     1    23    1
    22    23    24    1
    23    23    27    1
    24    27    28    2
    25    27    29   am
    26    29    30    1
    27    30    31    1
    28    31    32    1
    29    32    33    1
    30    32    34    1
    31     7     2   ar
    32    34    29    1
    33    16     8    1
    34    14    10    1
    35    13    17    1
    36    24    25    1
    37    24    26    1
@<TRIPOS>MOLECULE
*****
 34 37 0 0 0
SMALL
GASTEIGER

@<TRIPOS>ATOM
      1 C         141.0190  141.8092  168.0848 C.3     1  UNL1        0.1219
      2 C         141.0210  142.3947  166.7039 C.ar    1  UNL1       -0.0121
      3 C         142.2832  142.3999  165.8934 C.ar    1  UNL1       -0.0037
      4 C         142.2854  142.9854  164.5124 C.ar    1  UNL1       -0.0003
      5 C         141.0254  143.5657  163.9419 C.ar    1  UNL1        0.0013
      6 C         139.7632  143.5606  164.7523 C.ar    1  UNL1       -0.0003
      7 C         139.7610  142.9751  166.1333 C.ar    1  UNL1       -0.0037
      8 C         141.0275  144.1513  162.5608 C.2     1  UNL1        0.0162
      9 C         141.9820  143.6310  161.5271 C.2     1  UNL1        0.0862
     10 N         141.9841  144.2165  160.1461 N.pl3   1  UNL1       -0.1881
     11 N         142.8036  143.9106  158.9276 N.2     1  UNL1       -0.1584
     12 C         142.3578  144.8273  157.8272 C.2     1  UNL1        0.1807
     13 N         141.2628  145.6997  158.3656 N.pl3   1  UNL1       -0.2959
     14 C         141.0318  145.3222  159.7988 C.3     1  UNL1        0.1920
     15 C         140.0775  145.8424  160.8325 C.2     1  UNL1        0.0156
     16 C         140.0753  145.2569  162.2135 C.2     1  UNL1        0.0002
     17 H         140.7804  146.3976  157.8660 H       1  UNL1        0.1501
     18 C         142.7482  143.8160  171.0399 C.3     1  UNL1        0.1149
     19 N         142.5684  142.9245  169.8470 N.am    1  UNL1       -0.2757
     20 C         143.7582  142.2571  169.2234 C.3     1  UNL1        0.1149
     21 C         141.1988  142.7007  169.2777 C.2     1  UNL1        0.2312
     22 O         140.0090  143.3682  169.9014 O.2     1  UNL1       -0.2745
     23 C         140.8371  140.3322  168.2730 C.3     1  UNL1        0.1413
     24 N         141.8875  139.5317  168.9842 N.3     1  UNL1       -0.3144
     25 H         141.6020  138.5531  169.0214 H       1  UNL1        0.1193
     26 H         142.0028  139.8885  169.9327 H       1  UNL1        0.1193
     27 C         139.6047  139.6557  167.7499 C.2     1  UNL1        0.2406
     28 O         138.3720  139.5799  168.6013 O.2     1  UNL1       -0.2734
     29 N         139.6049  139.0551  166.3754 N.am    1  UNL1       -0.2756
     30 C         138.4537  138.3507  165.7209 C.3     1  UNL1        0.0964
     31 C         138.8937  137.9137  164.3550 C.3     1  UNL1        0.0585
     32 C         140.3169  138.3480  164.1655 C.3     1  UNL1        0.1824
     33 F         141.1535  138.1174  162.9421 F       1  UNL1       -0.2354
     34 C         140.7564  139.0535  165.4142 C.3     1  UNL1        0.1286
@<TRIPOS>BOND
     1    18    19    1
     2    19    20    1
     3    19    21   am
     4    21    22    2
     5     1    21    1
     6     1     2    1
     7     2     3   ar
     8     3     4   ar
     9     4     5   ar
    10     5     8    1
    11     8     9    2
    12     9    10    1
    13    10    11    1
    14    11    12    2
    15    12    13    1
    16    13    14    1
    17    14    15    1
    18    15    16    2
    19     5     6   ar
    20     6     7   ar
    21     1    23    1
    22    23    24    1
    23    23    27    1
    24    27    28    2
    25    27    29   am
    26    29    30    1
    27    30    31    1
    28    31    32    1
    29    32    33    1
    30    32    34    1
    31     7     2   ar
    32    34    29    1
    33    16     8    1
    34    14    10    1
    35    13    17    1
    36    24    25    1
    37    24    26    1
@<TRIPOS>MOLECULE
*****
 34 37 0 0 0
SMALL
GASTEIGER

@<TRIPOS>ATOM
      1 C         139.5768  143.4352  161.4519 C.3     1  UNL1        0.1219
      2 C         140.0478  143.1909  162.8549 C.ar    1  UNL1       -0.0121
      3 C         139.2555  143.7178  164.0145 C.ar    1  UNL1       -0.0037
      4 C         139.7265  143.4736  165.4175 C.ar    1  UNL1       -0.0003
      5 C         140.9898  142.7024  165.6610 C.ar    1  UNL1        0.0013
      6 C         141.7822  142.1755  164.5014 C.ar    1  UNL1       -0.0003
      7 C         141.3112  142.4198  163.0984 C.ar    1  UNL1       -0.0037
      8 C         141.4608  142.4582  167.0641 C.2     1  UNL1        0.0162
      9 C         140.4677  142.1541  168.1464 C.2     1  UNL1        0.0862
     10 N         140.9387  141.9098  169.5494 N.pl3   1  UNL1       -0.1881
     11 N         140.1995  141.5903  170.8149 N.2     1  UNL1       -0.1584
     12 C         141.2068  141.4526  171.9178 C.2     1  UNL1        0.1807
     13 N         142.5685  141.6871  171.3339 N.pl3   1  UNL1       -0.2959
     14 C         142.4028  141.9697  169.8701 C.3     1  UNL1        0.1920
     15 C         143.3958  142.2738  168.7879 C.2     1  UNL1        0.0156
     16 C         142.9248  142.5180  167.3848 C.2     1  UNL1        0.0002
     17 H         143.4213  141.6603  171.8252 H       1  UNL1        0.1501
     18 C         141.6814  145.6154  158.8894 C.3     1  UNL1        0.1149
     19 N         141.1686  144.4336  159.6577 N.am    1  UNL1       -0.2757
     20 C         141.7346  143.0686  159.4002 C.3     1  UNL1        0.1149
     21 C         140.0897  144.6169  160.6836 C.2     1  UNL1        0.2312
     22 O         139.5237  145.9820  160.9411 O.2     1  UNL1       -0.2745
     23 C         138.5928  142.4977  160.8172 C.3     1  UNL1        0.1413
     24 N         138.1157  142.7462  159.4170 N.3     1  UNL1       -0.3144
     25 H         137.4557  142.0165  159.1481 H       1  UNL1        0.1193
     26 H         138.9119  142.7362  158.7797 H       1  UNL1        0.1193
     27 C         138.0859  141.3115  161.5828 C.2     1  UNL1        0.2406
     28 O         136.8012  141.4079  162.3512 O.2     1  UNL1       -0.2734
     29 N         138.8636  140.0289  161.5799 N.am    1  UNL1       -0.2756
     30 C         138.4840  138.7660  162.2947 C.3     1  UNL1        0.0964
     31 C         139.5433  137.7405  162.0183 C.3     1  UNL1        0.0585
     32 C         140.5776  138.3697  161.1327 C.3     1  UNL1        0.1824
     33 F         141.8147  137.7018  160.6098 F       1  UNL1       -0.2354
     34 C         140.1575  139.7840  160.8617 C.3     1  UNL1        0.1286
@<TRIPOS>BOND
     1    18    19    1
     2    19    20    1
     3    19    21   am
     4    21    22    2
     5     1    21    1
     6     1     2    1
     7     2     3   ar
     8     3     4   ar
     9     4     5   ar
    10     5     8    1
    11     8     9    2
    12     9    10    1
    13    10    11    1
    14    11    12    2
    15    12    13    1
    16    13    14    1
    17    14    15    1
    18    15    16    2
    19     5     6   ar
    20     6     7   ar
    21     1    23    1
    22    23    24    1
    23    23    27    1
    24    27    28    2
    25    27    29   am
    26    29    30    1
    27    30    31    1
    28    31    32    1
    29    32    33    1
    30    32    34    1
    31     7     2   ar
    32    34    29    1
    33    16     8    1
    34    14    10    1
    35    13    17    1
    36    24    25    1
    37    24    26    1
@<TRIPOS>MOLECULE
*****
 34 37 0 0 0
SMALL
GASTEIGER

@<TRIPOS>ATOM
      1 C         140.2322  143.6064  161.6238 C.3     1  UNL1        0.1219
      2 C         140.4973  143.2090  163.0457 C.ar    1  UNL1       -0.0121
      3 C         139.8930  143.9972  164.1698 C.ar    1  UNL1       -0.0037
      4 C         140.1580  143.5999  165.5917 C.ar    1  UNL1       -0.0003
      5 C         141.0274  142.4143  165.8895 C.ar    1  UNL1        0.0013
      6 C         141.6316  141.6261  164.7655 C.ar    1  UNL1       -0.0003
      7 C         141.3666  142.0234  163.3435 C.ar    1  UNL1       -0.0037
      8 C         141.2924  142.0170  167.3115 C.2     1  UNL1        0.0162
      9 C         142.1090  140.7942  167.6088 C.2     1  UNL1        0.0862
     10 N         142.3740  140.3969  169.0307 N.pl3   1  UNL1       -0.1881
     11 N         143.1383  139.2523  169.6272 N.2     1  UNL1       -0.1584
     12 C         143.0592  139.3703  171.1204 C.2     1  UNL1        0.1807
     13 N         142.2461  140.5878  171.4469 N.pl3   1  UNL1       -0.2959
     14 C         141.8226  141.2223  170.1553 C.3     1  UNL1        0.1920
     15 C         141.0061  142.4450  169.8580 C.2     1  UNL1        0.0156
     16 C         140.7411  142.8423  168.4361 C.2     1  UNL1        0.0002
     17 H         142.0285  140.9132  172.3502 H       1  UNL1        0.1501
     18 C         138.6285  141.0412  159.0552 C.3     1  UNL1        0.1149
     19 N         139.6485  141.7860  159.8644 N.am    1  UNL1       -0.2757
     20 C         141.1048  141.4552  159.7234 C.3     1  UNL1        0.1149
     21 C         139.2122  142.8615  160.8146 C.2     1  UNL1        0.2312
     22 O         137.7559  143.1923  160.9555 O.2     1  UNL1       -0.2745
     23 C         140.9871  144.7486  161.0111 C.3     1  UNL1        0.1413
     24 N         142.4009  145.0238  161.4298 N.3     1  UNL1       -0.3144
     25 H         142.7568  145.8300  160.9161 H       1  UNL1        0.1193
     26 H         142.9801  144.2090  161.2275 H       1  UNL1        0.1193
     27 C         140.3280  145.6157  159.9797 C.2     1  UNL1        0.2406
     28 O         139.2461  146.5726  160.3846 O.2     1  UNL1       -0.2734
     29 N         140.7509  145.5259  158.5433 N.am    1  UNL1       -0.2756
     30 C         140.1862  146.3251  157.4064 C.3     1  UNL1        0.0964
     31 C         140.8990  145.9143  156.1521 C.3     1  UNL1        0.0585
     32 C         141.9041  144.8612  156.5139 C.3     1  UNL1        0.1824
     33 F         142.8370  144.1696  155.5644 F       1  UNL1       -0.2354
     34 C         141.8126  144.6212  157.9917 C.3     1  UNL1        0.1286
@<TRIPOS>BOND
     1    18    19    1
     2    19    20    1
     3    19    21   am
     4    21    22    2
     5     1    21    1
     6     1     2    1
     7     2     3   ar
     8     3     4   ar
     9     4     5   ar
    10     5     8    1
    11     8     9    2
    12     9    10    1
    13    10    11    1
    14    11    12    2
    15    12    13    1
    16    13    14    1
    17    14    15    1
    18    15    16    2
    19     5     6   ar
    20     6     7   ar
    21     1    23    1
    22    23    24    1
    23    23    27    1
    24    27    28    2
    25    27    29   am
    26    29    30    1
    27    30    31    1
    28    31    32    1
    29    32    33    1
    30    32    34    1
    31     7     2   ar
    32    34    29    1
    33    16     8    1
    34    14    10    1
    35    13    17    1
    36    24    25    1
    37    24    26    1
@<TRIPOS>MOLECULE
*****
 34 37 0 0 0
SMALL
GASTEIGER

@<TRIPOS>ATOM
      1 C         142.0297  140.6671  160.3851 C.3     1  UNL1        0.1219
      2 C         141.9168  140.4848  161.8696 C.ar    1  UNL1       -0.0121
      3 C         143.1032  140.7455  162.7496 C.ar    1  UNL1       -0.0037
      4 C         142.9904  140.5632  164.2342 C.ar    1  UNL1       -0.0003
      5 C         141.6911  140.1203  164.8388 C.ar    1  UNL1        0.0013
      6 C         140.5046  139.8597  163.9589 C.ar    1  UNL1       -0.0003
      7 C         140.6175  140.0419  162.4743 C.ar    1  UNL1       -0.0037
      8 C         141.5782  139.9381  166.3235 C.2     1  UNL1        0.0162
      9 C         140.2537  140.1222  167.0032 C.2     1  UNL1        0.0862
     10 N         140.1408  139.9399  168.4878 N.pl3   1  UNL1       -0.1881
     11 N         138.9772  140.0541  169.4274 N.2     1  UNL1       -0.1584
     12 C         139.4696  139.7584  170.8130 C.2     1  UNL1        0.1807
     13 N         140.9376  139.4614  170.7298 N.pl3   1  UNL1       -0.2959
     14 C         141.3524  139.5736  169.2927 C.3     1  UNL1        0.1920
     15 C         142.6769  139.3895  168.6130 C.2     1  UNL1        0.0156
     16 C         142.7897  139.5718  167.1284 C.2     1  UNL1        0.0002
     17 H         141.5256  139.2330  171.4857 H       1  UNL1        0.1501
     18 C         142.3845  137.4509  158.0873 C.3     1  UNL1        0.1149
     19 N         141.7724  138.5295  158.9310 N.am    1  UNL1       -0.2757
     20 C         140.2907  138.5491  159.1642 C.3     1  UNL1        0.1149
     21 C         142.6419  139.5885  159.5414 C.2     1  UNL1        0.2312
     22 O         144.1235  139.5688  159.3081 O.2     1  UNL1       -0.2745
     23 C         141.5305  141.9280  159.7441 C.3     1  UNL1        0.1413
     24 N         140.7734  141.8632  158.4508 N.3     1  UNL1       -0.3144
     25 H         140.5125  142.8060  158.1620 H       1  UNL1        0.1193
     26 H         139.9316  141.3012  158.5774 H       1  UNL1        0.1193
     27 C         141.7884  143.2539  160.3965 C.2     1  UNL1        0.2406
     28 O         143.0980  143.9533  160.1820 O.2     1  UNL1       -0.2734
     29 N         140.7368  143.8804  161.2635 N.am    1  UNL1       -0.2756
     30 C         140.8508  145.1946  161.9775 C.3     1  UNL1        0.0964
     31 C         139.5710  145.4291  162.7240 C.3     1  UNL1        0.0585
     32 C         138.6660  144.2598  162.4712 C.3     1  UNL1        0.1824
     33 F         137.2834  144.0794  163.0240 F       1  UNL1       -0.2354
     34 C         139.3865  143.3027  161.5685 C.3     1  UNL1        0.1286
@<TRIPOS>BOND
     1    18    19    1
     2    19    20    1
     3    19    21   am
     4    21    22    2
     5     1    21    1
     6     1     2    1
     7     2     3   ar
     8     3     4   ar
     9     4     5   ar
    10     5     8    1
    11     8     9    2
    12     9    10    1
    13    10    11    1
    14    11    12    2
    15    12    13    1
    16    13    14    1
    17    14    15    1
    18    15    16    2
    19     5     6   ar
    20     6     7   ar
    21     1    23    1
    22    23    24    1
    23    23    27    1
    24    27    28    2
    25    27    29   am
    26    29    30    1
    27    30    31    1
    28    31    32    1
    29    32    33    1
    30    32    34    1
    31     7     2   ar
    32    34    29    1
    33    16     8    1
    34    14    10    1
    35    13    17    1
    36    24    25    1
    37    24    26    1
@<TRIPOS>MOLECULE
*****
 34 37 0 0 0
SMALL
GASTEIGER

@<TRIPOS>ATOM
      1 C         140.6453  143.0775  160.7161 C.3     1  UNL1        0.1219
      2 C         140.5318  142.7254  162.1698 C.ar    1  UNL1       -0.0121
      3 C         141.4875  141.7435  162.7803 C.ar    1  UNL1       -0.0037
      4 C         141.3741  141.3913  164.2340 C.ar    1  UNL1       -0.0003
      5 C         140.3052  142.0210  165.0771 C.ar    1  UNL1        0.0013
      6 C         139.3495  143.0028  164.4665 C.ar    1  UNL1       -0.0003
      7 C         139.4629  143.3550  163.0129 C.ar    1  UNL1       -0.0037
      8 C         140.1918  141.6688  166.5308 C.2     1  UNL1        0.0162
      9 C         140.6822  142.6274  167.5752 C.2     1  UNL1        0.0862
     10 N         140.5688  142.2752  169.0288 N.pl3   1  UNL1       -0.1881
     11 N         140.9624  143.0132  170.2740 N.2     1  UNL1       -0.1584
     12 C         140.6019  142.1586  171.4528 C.2     1  UNL1        0.1807
     13 N         139.9856  140.8924  170.9362 N.pl3   1  UNL1       -0.2959
     14 C         139.9651  140.9644  169.4381 C.3     1  UNL1        0.1920
     15 C         139.4748  140.0059  168.3937 C.2     1  UNL1        0.0156
     16 C         139.5882  140.3581  166.9400 C.2     1  UNL1        0.0002
     17 H         139.6529  140.1452  171.4842 H       1  UNL1        0.1501
     18 C         139.2739  140.4526  158.0744 C.3     1  UNL1        0.1149
     19 N         140.1674  141.1175  159.0792 N.am    1  UNL1       -0.2757
     20 C         141.4766  140.4871  159.4517 C.3     1  UNL1        0.1149
     21 C         139.7517  142.4127  159.7114 C.2     1  UNL1        0.2312
     22 O         138.4426  143.0430  159.3388 O.2     1  UNL1       -0.2745
     23 C         141.6523  144.0946  160.2672 C.3     1  UNL1        0.1413
     24 N         142.1808  145.1069  161.2397 N.3     1  UNL1       -0.3144
     25 H         142.8504  145.7146  160.7678 H       1  UNL1        0.1193
     26 H         142.6427  144.6273  162.0124 H       1  UNL1        0.1193
     27 C         142.1307  144.0994  158.8456 C.2     1  UNL1        0.2406
     28 O         143.2979  143.2469  158.4441 O.2     1  UNL1       -0.2734
     29 N         141.4421  144.9566  157.8253 N.am    1  UNL1       -0.2756
     30 C         141.8060  145.0645  156.3741 C.3     1  UNL1        0.0964
     31 C         140.8574  146.0310  155.7290 C.3     1  UNL1        0.0585
     32 C         139.9073  146.5204  156.7816 C.3     1  UNL1        0.1824
     33 F         138.7917  147.5016  156.5748 F       1  UNL1       -0.2354
     34 C         140.2687  145.8564  158.0771 C.3     1  UNL1        0.1286
@<TRIPOS>BOND
     1    18    19    1
     2    19    20    1
     3    19    21   am
     4    21    22    2
     5     1    21    1
     6     1     2    1
     7     2     3   ar
     8     3     4   ar
     9     4     5   ar
    10     5     8    1
    11     8     9    2
    12     9    10    1
    13    10    11    1
    14    11    12    2
    15    12    13    1
    16    13    14    1
    17    14    15    1
    18    15    16    2
    19     5     6   ar
    20     6     7   ar
    21     1    23    1
    22    23    24    1
    23    23    27    1
    24    27    28    2
    25    27    29   am
    26    29    30    1
    27    30    31    1
    28    31    32    1
    29    32    33    1
    30    32    34    1
    31     7     2   ar
    32    34    29    1
    33    16     8    1
    34    14    10    1
    35    13    17    1
    36    24    25    1
    37    24    26    1
@<TRIPOS>MOLECULE
*****
 34 37 0 0 0
SMALL
GASTEIGER

@<TRIPOS>ATOM
      1 C         143.4493  141.0046  161.0188 C.3     1  UNL1        0.1219
      2 C         143.1911  140.8889  162.4918 C.ar    1  UNL1       -0.0121
      3 C         142.3415  141.9113  163.1868 C.ar    1  UNL1       -0.0037
      4 C         142.0832  141.7957  164.6599 C.ar    1  UNL1       -0.0003
      5 C         142.6746  140.6577  165.4379 C.ar    1  UNL1        0.0013
      6 C         143.5242  139.6354  164.7429 C.ar    1  UNL1       -0.0003
      7 C         143.7824  139.7510  163.2698 C.ar    1  UNL1       -0.0037
      8 C         142.4163  140.5421  166.9111 C.2     1  UNL1        0.0162
      9 C         141.7920  141.6853  167.6550 C.2     1  UNL1        0.0862
     10 N         141.5338  141.5697  169.1281 N.pl3   1  UNL1       -0.1881
     11 N         140.9361  142.5229  170.1201 N.2     1  UNL1       -0.1584
     12 C         140.9327  141.8532  171.4623 C.2     1  UNL1        0.1807
     13 N         141.5283  140.4861  171.2998 N.pl3   1  UNL1       -0.2959
     14 C         141.8998  140.3109  169.8572 C.3     1  UNL1        0.1920
     15 C         142.5241  139.1678  169.1132 C.2     1  UNL1        0.0156
     16 C         142.7823  139.2834  167.6401 C.2     1  UNL1        0.0002
     17 H         141.6535  139.8208  172.0145 H       1  UNL1        0.1501
     18 C         141.2247  138.6941  158.6816 C.3     1  UNL1        0.1149
     19 N         141.6300  139.8055  159.6037 N.am    1  UNL1       -0.2757
     20 C         140.6212  140.8294  160.0329 C.3     1  UNL1        0.1149
     21 C         143.0440  139.8931  160.0966 C.2     1  UNL1        0.2312
     22 O         144.0526  138.8692  159.6674 O.2     1  UNL1       -0.2745
     23 C         144.1128  142.2319  160.4677 C.3     1  UNL1        0.1413
     24 N         145.2662  142.8531  161.1983 N.3     1  UNL1       -0.3144
     25 H         145.5919  143.6725  160.6855 H       1  UNL1        0.1193
     26 H         146.0250  142.1758  161.2743 H       1  UNL1        0.1193
     27 C         143.6230  142.8379  159.1860 C.2     1  UNL1        0.2406
     28 O         144.2466  142.4392  157.8813 O.2     1  UNL1       -0.2734
     29 N         142.5094  143.8426  159.2089 N.am    1  UNL1       -0.2756
     30 C         141.9174  144.5299  158.0143 C.3     1  UNL1        0.0964
     31 C         140.8344  145.4485  158.4975 C.3     1  UNL1        0.0585
     32 C         140.7571  145.3288  159.9908 C.3     1  UNL1        0.1824
     33 F         139.8108  146.0713  160.8870 F       1  UNL1       -0.2354
     34 C         141.7924  144.3363  160.4304 C.3     1  UNL1        0.1286
@<TRIPOS>BOND
     1    18    19    1
     2    19    20    1
     3    19    21   am
     4    21    22    2
     5     1    21    1
     6     1     2    1
     7     2     3   ar
     8     3     4   ar
     9     4     5   ar
    10     5     8    1
    11     8     9    2
    12     9    10    1
    13    10    11    1
    14    11    12    2
    15    12    13    1
    16    13    14    1
    17    14    15    1
    18    15    16    2
    19     5     6   ar
    20     6     7   ar
    21     1    23    1
    22    23    24    1
    23    23    27    1
    24    27    28    2
    25    27    29   am
    26    29    30    1
    27    30    31    1
    28    31    32    1
    29    32    33    1
    30    32    34    1
    31     7     2   ar
    32    34    29    1
    33    16     8    1
    34    14    10    1
    35    13    17    1
    36    24    25    1
    37    24    26    1
@<TRIPOS>MOLECULE
*****
 34 37 0 0 0
SMALL
GASTEIGER

@<TRIPOS>ATOM
      1 C         140.2318  140.2649  160.1451 C.3     1  UNL1        0.1219
      2 C         140.4410  140.1727  161.6276 C.ar    1  UNL1       -0.0121
      3 C         139.3702  139.5893  162.5011 C.ar    1  UNL1       -0.0037
      4 C         139.5793  139.4970  163.9836 C.ar    1  UNL1       -0.0003
      5 C         140.8592  139.9881  164.5925 C.ar    1  UNL1        0.0013
      6 C         141.9299  140.5715  163.7190 C.ar    1  UNL1       -0.0003
      7 C         141.7209  140.6638  162.2365 C.ar    1  UNL1       -0.0037
      8 C         141.0683  139.8958  166.0751 C.2     1  UNL1        0.0162
      9 C         139.9038  140.0513  167.0079 C.2     1  UNL1        0.0862
     10 N         140.1129  139.9591  168.4903 N.pl3   1  UNL1       -0.1881
     11 N         139.1639  140.0704  169.6466 N.2     1  UNL1       -0.1584
     12 C         139.9509  139.8913  170.9110 C.2     1  UNL1        0.1807
     13 N         141.3863  139.6694  170.5361 N.pl3   1  UNL1       -0.2959
     14 C         141.4864  139.7112  169.0400 C.3     1  UNL1        0.1920
     15 C         142.6508  139.5557  168.1073 C.2     1  UNL1        0.0156
     16 C         142.4417  139.6480  166.6248 C.2     1  UNL1        0.0002
     17 H         142.1317  139.5221  171.1621 H       1  UNL1        0.1501
     18 C         142.4941  138.0218  157.7787 C.3     1  UNL1        0.1149
     19 N         142.0537  139.1452  158.6696 N.am    1  UNL1       -0.2757
     20 C         142.9947  140.2724  158.9760 C.3     1  UNL1        0.1149
     21 C         140.6723  139.1415  159.2542 C.2     1  UNL1        0.2312
     22 O         139.7313  138.0142  158.9477 O.2     1  UNL1       -0.2745
     23 C         139.5822  141.4807  159.5536 C.3     1  UNL1        0.1413
     24 N         138.3567  141.3364  158.7008 N.3     1  UNL1       -0.3144
     25 H         138.0517  142.2572  158.3853 H       1  UNL1        0.1193
     26 H         137.6129  140.9000  159.2455 H       1  UNL1        0.1193
     27 C         140.1582  142.8409  159.8148 C.2     1  UNL1        0.2406
     28 O         141.2445  143.3779  158.9307 O.2     1  UNL1       -0.2734
     29 N         139.6479  143.6641  160.9602 N.am    1  UNL1       -0.2756
     30 C         140.1244  145.0340  161.3425 C.3     1  UNL1        0.0964
     31 C         139.3425  145.4785  162.5430 C.3     1  UNL1        0.0585
     32 C         138.3828  144.3832  162.9026 C.3     1  UNL1        0.1824
     33 F         137.4058  144.4054  164.0406 F       1  UNL1       -0.2354
     34 C         138.5715  143.2618  161.9244 C.3     1  UNL1        0.1286
@<TRIPOS>BOND
     1    18    19    1
     2    19    20    1
     3    19    21   am
     4    21    22    2
     5     1    21    1
     6     1     2    1
     7     2     3   ar
     8     3     4   ar
     9     4     5   ar
    10     5     8    1
    11     8     9    2
    12     9    10    1
    13    10    11    1
    14    11    12    2
    15    12    13    1
    16    13    14    1
    17    14    15    1
    18    15    16    2
    19     5     6   ar
    20     6     7   ar
    21     1    23    1
    22    23    24    1
    23    23    27    1
    24    27    28    2
    25    27    29   am
    26    29    30    1
    27    30    31    1
    28    31    32    1
    29    32    33    1
    30    32    34    1
    31     7     2   ar
    32    34    29    1
    33    16     8    1
    34    14    10    1
    35    13    17    1
    36    24    25    1
    37    24    26    1
