@<TRIPOS>MOLECULE
*****
 33 35 0 0 0
SMALL
GASTEIGER

@<TRIPOS>ATOM
      1 S         141.4629  143.7001  163.1769 S.O2    1  UNL1        0.0633
      2 O         141.0474  142.3247  162.7462 O.2     1  UNL1       -0.1528
      3 O         141.8784  145.0755  163.6075 O.2     1  UNL1       -0.1528
      4 C         139.0167  143.9759  164.8915 C.3     1  UNL1        0.0206
      5 C         140.2698  143.3815  165.4628 C.3     1  UNL1        0.0956
      6 C         140.2999  142.9251  166.8913 C.3     1  UNL1        0.0900
      7 N         141.5531  142.3308  167.4625 N.3     1  UNL1       -0.2698
      8 C         142.7762  142.1929  166.6053 C.3     1  UNL1        0.0915
      9 C         142.7461  142.6493  165.1768 C.3     1  UNL1        0.1131
     10 N         141.4929  143.2437  164.6055 N.3     1  UNL1       -0.1541
     11 C         141.5831  141.8744  168.8912 C.3     1  UNL1        0.0807
     12 C         140.3008  141.5780  169.6109 C.3     1  UNL1        0.0833
     13 C         139.0835  140.8334  170.0731 C.3     1  UNL1        0.0105
     14 C         140.0423  140.1846  169.1195 C.3     1  UNL1        0.0105
     15 C         140.1140  142.8685  170.3523 C.2     1  UNL1        0.2198
     16 N         141.1419  143.9549  170.2377 N.am    1  UNL1       -0.3288
     17 O         138.8992  143.0726  171.2083 O.2     1  UNL1       -0.2753
     18 H         141.9392  143.8210  169.6759 H       1  UNL1        0.1449
     19 H         141.0192  144.8019  170.7244 H       1  UNL1        0.1449
     20 C         141.4329  144.1564  161.7483 C.ar    1  UNL1        0.1222
     21 C         140.3838  145.1271  161.2930 C.ar    1  UNL1        0.0197
     22 C         140.3539  145.5834  159.8643 C.ar    1  UNL1       -0.0004
     23 C         141.3729  145.0692  158.8912 C.ar    1  UNL1        0.0099
     24 C         142.4219  144.0985  159.3466 C.ar    1  UNL1       -0.0004
     25 C         142.4519  143.6422  160.7751 C.ar    1  UNL1        0.0197
     26 C         141.3428  145.5255  157.4626 C.3     1  UNL1        0.1945
     27 C         141.3128  145.9819  156.0340 C.3     1  UNL1        0.0428
     28 O         142.6019  146.3094  157.6866 O.3     1  UNL1       -0.3751
     29 H         142.8916  146.2002  158.6058 H       1  UNL1        0.2110
     30 C         140.0838  144.7416  157.2387 C.3     1  UNL1        0.4230
     31 F         138.8247  143.9576  157.0147 F       1  UNL1       -0.1673
     32 F         140.4910  143.3204  157.4924 F       1  UNL1       -0.1673
     33 F         139.3499  146.0108  156.9213 F       1  UNL1       -0.1673
@<TRIPOS>BOND
     1     5     4    1
     2     5     6    1
     3     6     7    1
     4     7    11    1
     5    11    12    1
     6    12    15    1
     7    15    16   am
     8    15    17    2
     9    12    13    1
    10    13    14    1
    11     7     8    1
    12     8     9    1
    13     9    10    1
    14    10     1    1
    15     1     2    2
    16     1     3    2
    17     1    20    1
    18    20    21   ar
    19    21    22   ar
    20    22    23   ar
    21    23    26    1
    22    26    27    1
    23    26    28    1
    24    26    30    1
    25    30    31    1
    26    30    32    1
    27    30    33    1
    28    23    24   ar
    29    24    25   ar
    30    10     5    1
    31    25    20   ar
    32    14    12    1
    33    16    18    1
    34    16    19    1
    35    28    29    1
@<TRIPOS>MOLECULE
*****
 33 35 0 0 0
SMALL
GASTEIGER

@<TRIPOS>ATOM
      1 S         141.7704  139.0443  164.2890 S.O2    1  UNL1        0.0633
      2 O         141.6715  137.5887  164.6376 O.2     1  UNL1       -0.1528
      3 O         141.8692  140.4998  163.9403 O.2     1  UNL1       -0.1528
      4 C         139.4619  138.9340  162.3762 C.3     1  UNL1        0.0206
      5 C         140.8495  138.6289  161.8953 C.3     1  UNL1        0.0956
      6 C         141.0830  138.2688  160.4580 C.3     1  UNL1        0.0900
      7 N         142.4707  137.9637  159.9772 N.3     1  UNL1       -0.2698
      8 C         143.6249  138.0188  160.9335 C.3     1  UNL1        0.0915
      9 C         143.3915  138.3790  162.3707 C.3     1  UNL1        0.1131
     10 N         142.0038  138.6841  162.8516 N.3     1  UNL1       -0.1541
     11 C         142.7041  137.6035  158.5398 C.3     1  UNL1        0.0807
     12 C         142.2879  138.5493  157.4525 C.3     1  UNL1        0.0833
     13 C         141.5717  139.0854  156.2485 C.3     1  UNL1        0.0105
     14 C         141.2795  137.6984  156.7390 C.3     1  UNL1        0.0105
     15 C         143.1518  139.7287  157.7884 C.2     1  UNL1        0.2198
     16 N         142.5864  140.8717  158.5782 N.am    1  UNL1       -0.3288
     17 O         144.5810  139.7650  157.3344 O.2     1  UNL1       -0.2753
     18 H         141.6484  140.8478  158.8762 H       1  UNL1        0.1449
     19 H         143.1534  141.6458  158.7987 H       1  UNL1        0.1449
     20 C         141.5370  139.4044  165.7262 C.ar    1  UNL1        0.1222
     21 C         142.6408  139.2424  166.7288 C.ar    1  UNL1        0.0197
     22 C         142.4073  139.6025  168.1662 C.ar    1  UNL1       -0.0004
     23 C         141.0701  140.1247  168.6008 C.ar    1  UNL1        0.0099
     24 C         139.9662  140.2868  167.5982 C.ar    1  UNL1       -0.0004
     25 C         140.1996  139.9266  166.1610 C.ar    1  UNL1        0.0197
     26 C         140.8367  140.4849  170.0381 C.3     1  UNL1        0.1945
     27 C         140.6032  140.8451  171.4754 C.3     1  UNL1        0.0428
     28 O         141.2179  139.0935  170.4487 O.3     1  UNL1       -0.3751
     29 H         141.4424  138.5740  169.6609 H       1  UNL1        0.2110
     30 C         140.4554  141.8762  169.6275 C.3     1  UNL1        0.4230
     31 F         140.0741  143.2677  169.2169 F       1  UNL1       -0.1673
     32 F         141.7187  142.4438  169.0515 F       1  UNL1       -0.1673
     33 F         139.0582  141.6384  170.1188 F       1  UNL1       -0.1673
@<TRIPOS>BOND
     1     5     4    1
     2     5     6    1
     3     6     7    1
     4     7    11    1
     5    11    12    1
     6    12    15    1
     7    15    16   am
     8    15    17    2
     9    12    13    1
    10    13    14    1
    11     7     8    1
    12     8     9    1
    13     9    10    1
    14    10     1    1
    15     1     2    2
    16     1     3    2
    17     1    20    1
    18    20    21   ar
    19    21    22   ar
    20    22    23   ar
    21    23    26    1
    22    26    27    1
    23    26    28    1
    24    26    30    1
    25    30    31    1
    26    30    32    1
    27    30    33    1
    28    23    24   ar
    29    24    25   ar
    30    10     5    1
    31    25    20   ar
    32    14    12    1
    33    16    18    1
    34    16    19    1
    35    28    29    1
@<TRIPOS>MOLECULE
*****
 33 35 0 0 0
SMALL
GASTEIGER

@<TRIPOS>ATOM
      1 S         142.6040  142.6290  164.1148 S.O2    1  UNL1        0.0633
      2 O         142.0834  141.2389  163.8989 O.2     1  UNL1       -0.1528
      3 O         143.1245  144.0191  164.3308 O.2     1  UNL1       -0.1528
      4 C         145.3513  141.8525  163.1934 C.3     1  UNL1        0.0206
      5 C         144.3350  142.3327  162.2002 C.3     1  UNL1        0.0956
      6 C         144.6924  142.4247  160.7463 C.3     1  UNL1        0.0900
      7 N         143.6760  142.9050  159.7531 N.3     1  UNL1       -0.2698
      8 C         142.3024  143.2932  160.2138 C.3     1  UNL1        0.0915
      9 C         141.9450  143.2012  161.6677 C.3     1  UNL1        0.1131
     10 N         142.9614  142.7210  162.6609 N.3     1  UNL1       -0.1541
     11 C         144.0334  142.9969  158.2992 C.3     1  UNL1        0.0807
     12 C         144.5908  141.8004  157.5867 C.3     1  UNL1        0.0833
     13 C         145.5270  140.9492  156.7812 C.3     1  UNL1        0.0105
     14 C         145.8751  142.3790  157.0711 C.3     1  UNL1        0.0105
     15 C         143.5001  140.8061  157.8549 C.2     1  UNL1        0.2198
     16 N         142.0862  141.1206  157.4653 N.am    1  UNL1       -0.3288
     17 O         143.8234  139.4973  158.5126 O.2     1  UNL1       -0.2753
     18 H         141.8740  141.9796  157.0336 H       1  UNL1        0.1449
     19 H         141.3704  140.4681  157.6413 H       1  UNL1        0.1449
     20 C         142.2466  142.5370  165.5687 C.ar    1  UNL1        0.1222
     21 C         140.8133  142.6475  165.9972 C.ar    1  UNL1        0.0197
     22 C         140.4559  142.5555  167.4511 C.ar    1  UNL1       -0.0004
     23 C         141.5318  142.3529  168.4765 C.ar    1  UNL1        0.0099
     24 C         142.9650  142.2424  168.0480 C.ar    1  UNL1       -0.0004
     25 C         143.3224  142.3344  166.5942 C.ar    1  UNL1        0.0197
     26 C         141.1744  142.2609  169.9304 C.3     1  UNL1        0.1945
     27 C         140.8169  142.1688  171.3843 C.3     1  UNL1        0.0428
     28 O         142.0876  143.4130  170.2278 O.3     1  UNL1       -0.3751
     29 H         142.5024  143.7175  169.4055 H       1  UNL1        0.2110
     30 C         140.2611  141.1088  169.6329 C.3     1  UNL1        0.4230
     31 F         139.3478  139.9566  169.3355 F       1  UNL1       -0.1673
     32 F         141.1753  140.0525  169.0866 F       1  UNL1       -0.1673
     33 F         139.0910  141.9100  170.1218 F       1  UNL1       -0.1673
@<TRIPOS>BOND
     1     5     4    1
     2     5     6    1
     3     6     7    1
     4     7    11    1
     5    11    12    1
     6    12    15    1
     7    15    16   am
     8    15    17    2
     9    12    13    1
    10    13    14    1
    11     7     8    1
    12     8     9    1
    13     9    10    1
    14    10     1    1
    15     1     2    2
    16     1     3    2
    17     1    20    1
    18    20    21   ar
    19    21    22   ar
    20    22    23   ar
    21    23    26    1
    22    26    27    1
    23    26    28    1
    24    26    30    1
    25    30    31    1
    26    30    32    1
    27    30    33    1
    28    23    24   ar
    29    24    25   ar
    30    10     5    1
    31    25    20   ar
    32    14    12    1
    33    16    18    1
    34    16    19    1
    35    28    29    1
@<TRIPOS>MOLECULE
*****
 33 35 0 0 0
SMALL
GASTEIGER

@<TRIPOS>ATOM
      1 S         140.5165  138.8042  162.1958 S.O2    1  UNL1        0.0633
      2 O         140.5807  140.2791  161.9303 O.2     1  UNL1       -0.1528
      3 O         140.4524  137.3293  162.4613 O.2     1  UNL1       -0.1528
      4 C         143.3384  138.2423  161.3462 C.3     1  UNL1        0.0206
      5 C         142.2362  138.2503  160.3287 C.3     1  UNL1        0.0956
      6 C         142.5450  137.9773  158.8865 C.3     1  UNL1        0.0900
      7 N         141.4428  137.9852  157.8690 N.3     1  UNL1       -0.2698
      8 C         140.0320  138.2661  158.2938 C.3     1  UNL1        0.0915
      9 C         139.7232  138.5391  159.7360 C.3     1  UNL1        0.1131
     10 N         140.8253  138.5312  160.7535 N.3     1  UNL1       -0.1541
     11 C         141.7516  137.7122  156.4267 C.3     1  UNL1        0.0807
     12 C         141.7424  136.3035  155.9114 C.3     1  UNL1        0.0833
     13 C         141.2624  135.0522  155.2378 C.3     1  UNL1        0.0105
     14 C         140.3838  136.2672  155.2767 C.3     1  UNL1        0.0105
     15 C         143.0978  135.8505  156.3671 C.2     1  UNL1        0.2198
     16 N         143.2244  134.6777  157.2935 N.am    1  UNL1       -0.3288
     17 O         144.3267  136.5705  155.8964 O.2     1  UNL1       -0.2753
     18 H         142.4179  134.2051  157.6024 H       1  UNL1        0.1449
     19 H         144.1140  134.3804  157.5926 H       1  UNL1        0.1449
     20 C         140.2078  139.0773  163.6380 C.ar    1  UNL1        0.1222
     21 C         138.8299  139.5126  164.0406 C.ar    1  UNL1        0.0197
     22 C         138.5212  139.7857  165.4829 C.ar    1  UNL1       -0.0004
     23 C         139.5902  139.6234  166.5225 C.ar    1  UNL1        0.0099
     24 C         140.9680  139.1880  166.1199 C.ar    1  UNL1       -0.0004
     25 C         141.2768  138.9150  164.6777 C.ar    1  UNL1        0.0197
     26 C         139.2814  139.8964  167.9648 C.3     1  UNL1        0.1945
     27 C         138.9727  140.1695  169.4071 C.3     1  UNL1        0.0428
     28 O         138.1436  138.9208  167.9059 O.3     1  UNL1       -0.3751
     29 H         138.0866  138.5440  167.0139 H       1  UNL1        0.2110
     30 C         140.4192  140.8721  168.0236 C.3     1  UNL1        0.4230
     31 F         141.5571  141.8478  168.0825 F       1  UNL1       -0.1673
     32 F         139.9811  141.9950  167.1309 F       1  UNL1       -0.1673
     33 F         141.1546  139.9581  168.9585 F       1  UNL1       -0.1673
@<TRIPOS>BOND
     1     5     4    1
     2     5     6    1
     3     6     7    1
     4     7    11    1
     5    11    12    1
     6    12    15    1
     7    15    16   am
     8    15    17    2
     9    12    13    1
    10    13    14    1
    11     7     8    1
    12     8     9    1
    13     9    10    1
    14    10     1    1
    15     1     2    2
    16     1     3    2
    17     1    20    1
    18    20    21   ar
    19    21    22   ar
    20    22    23   ar
    21    23    26    1
    22    26    27    1
    23    26    28    1
    24    26    30    1
    25    30    31    1
    26    30    32    1
    27    30    33    1
    28    23    24   ar
    29    24    25   ar
    30    10     5    1
    31    25    20   ar
    32    14    12    1
    33    16    18    1
    34    16    19    1
    35    28    29    1
@<TRIPOS>MOLECULE
*****
 33 35 0 0 0
SMALL
GASTEIGER

@<TRIPOS>ATOM
      1 S         140.7716  142.6157  163.5990 S.O2    1  UNL1        0.0633
      2 O         139.4117  143.0768  164.0323 O.2     1  UNL1       -0.1528
      3 O         142.1316  142.1545  163.1656 O.2     1  UNL1       -0.1528
      4 C         141.5091  145.5032  163.2544 C.3     1  UNL1        0.0206
      5 C         140.9448  144.7302  162.0993 C.3     1  UNL1        0.0956
      6 C         140.7493  145.4010  160.7720 C.3     1  UNL1        0.0900
      7 N         140.1851  144.6280  159.6170 N.3     1  UNL1       -0.2698
      8 C         139.8164  143.1843  159.7892 C.3     1  UNL1        0.0915
      9 C         140.0119  142.5136  161.1165 C.3     1  UNL1        0.1131
     10 N         140.5761  143.2865  162.2716 N.3     1  UNL1       -0.1541
     11 C         139.9895  145.2989  158.2896 C.3     1  UNL1        0.0807
     12 C         140.6110  144.7151  157.0555 C.3     1  UNL1        0.0833
     13 C         140.7282  144.0661  155.7083 C.3     1  UNL1        0.0105
     14 C         139.3748  144.3242  156.3012 C.3     1  UNL1        0.0105
     15 C         142.0631  144.9034  157.3811 C.2     1  UNL1        0.2198
     16 N         142.5788  146.2625  157.7509 N.am    1  UNL1       -0.3288
     17 O         142.9995  143.7324  157.3369 O.2     1  UNL1       -0.2753
     18 H         141.9641  147.0310  157.7799 H       1  UNL1        0.1449
     19 H         143.5318  146.3860  157.9646 H       1  UNL1        0.1449
     20 C         140.9671  141.9449  164.9263 C.ar    1  UNL1        0.1222
     21 C         141.3828  140.5048  164.9849 C.ar    1  UNL1        0.0197
     22 C         141.5783  139.8340  166.3123 C.ar    1  UNL1       -0.0004
     23 C         141.3581  140.6033  167.5810 C.ar    1  UNL1        0.0099
     24 C         140.9424  142.0434  167.5224 C.ar    1  UNL1       -0.0004
     25 C         140.7469  142.7142  166.1951 C.ar    1  UNL1        0.0197
     26 C         141.5535  139.9325  168.9083 C.3     1  UNL1        0.1945
     27 C         141.7490  139.2617  170.2357 C.3     1  UNL1        0.0428
     28 O         142.9415  139.5341  168.5025 O.3     1  UNL1       -0.3751
     29 H         143.1215  139.8572  167.6058 H       1  UNL1        0.2110
     30 C         140.1655  140.3310  169.3140 C.3     1  UNL1        0.4230
     31 F         138.7775  140.7294  169.7198 F       1  UNL1       -0.1673
     32 F         139.2802  139.5848  168.3604 F       1  UNL1       -0.1673
     33 F         140.7317  141.1994  170.3982 F       1  UNL1       -0.1673
@<TRIPOS>BOND
     1     5     4    1
     2     5     6    1
     3     6     7    1
     4     7    11    1
     5    11    12    1
     6    12    15    1
     7    15    16   am
     8    15    17    2
     9    12    13    1
    10    13    14    1
    11     7     8    1
    12     8     9    1
    13     9    10    1
    14    10     1    1
    15     1     2    2
    16     1     3    2
    17     1    20    1
    18    20    21   ar
    19    21    22   ar
    20    22    23   ar
    21    23    26    1
    22    26    27    1
    23    26    28    1
    24    26    30    1
    25    30    31    1
    26    30    32    1
    27    30    33    1
    28    23    24   ar
    29    24    25   ar
    30    10     5    1
    31    25    20   ar
    32    14    12    1
    33    16    18    1
    34    16    19    1
    35    28    29    1
@<TRIPOS>MOLECULE
*****
 33 35 0 0 0
SMALL
GASTEIGER

@<TRIPOS>ATOM
      1 S         141.7737  143.3154  163.9123 S.O2    1  UNL1        0.0633
      2 O         140.7943  142.2299  163.5769 O.2     1  UNL1       -0.1528
      3 O         142.7531  144.4008  164.2476 O.2     1  UNL1       -0.1528
      4 C         139.8750  145.3926  162.8729 C.3     1  UNL1        0.0206
      5 C         140.8712  144.7576  161.9487 C.3     1  UNL1        0.0956
      6 C         140.9182  145.1612  160.5048 C.3     1  UNL1        0.0900
      7 N         141.9145  144.5263  159.5806 N.3     1  UNL1       -0.2698
      8 C         142.8638  143.4877  160.1002 C.3     1  UNL1        0.0915
      9 C         142.8169  143.0841  161.5441 C.3     1  UNL1        0.1131
     10 N         141.8206  143.7190  162.4683 N.3     1  UNL1       -0.1541
     11 C         141.9614  144.9300  158.1366 C.3     1  UNL1        0.0807
     12 C         140.7543  144.7431  157.2660 C.3     1  UNL1        0.0833
     13 C         139.5976  145.0742  156.3702 C.3     1  UNL1        0.0105
     14 C         140.4804  146.1694  156.8908 C.3     1  UNL1        0.0105
     15 C         140.6088  143.2520  157.3389 C.2     1  UNL1        0.2198
     16 N         139.6069  142.6409  158.2730 N.am    1  UNL1       -0.3288
     17 O         141.4654  142.3719  156.4776 O.2     1  UNL1       -0.2753
     18 H         139.0447  143.2185  158.8383 H       1  UNL1        0.1449
     19 H         139.5114  141.6622  158.3209 H       1  UNL1        0.1449
     20 C         141.7267  142.9117  165.3561 C.ar    1  UNL1        0.1222
     21 C         142.9859  142.5047  166.0625 C.ar    1  UNL1        0.0197
     22 C         142.9389  142.1010  167.5064 C.ar    1  UNL1       -0.0004
     23 C         141.6328  142.1043  168.2439 C.ar    1  UNL1        0.0099
     24 C         140.3736  142.5112  167.5376 C.ar    1  UNL1       -0.0004
     25 C         140.4206  142.9149  166.0938 C.ar    1  UNL1        0.0197
     26 C         141.5858  141.7006  169.6878 C.3     1  UNL1        0.1945
     27 C         141.5389  141.2969  171.1317 C.3     1  UNL1        0.0428
     28 O         142.3509  140.4518  169.3635 O.3     1  UNL1       -0.3751
     29 H         142.5445  140.4288  168.4133 H       1  UNL1        0.2110
     30 C         140.8207  142.9493  170.0121 C.3     1  UNL1        0.4230
     31 F         140.0556  144.1981  170.3363 F       1  UNL1       -0.1673
     32 F         139.4032  142.4799  170.1544 F       1  UNL1       -0.1673
     33 F         142.0909  143.7447  169.9462 F       1  UNL1       -0.1673
@<TRIPOS>BOND
     1     5     4    1
     2     5     6    1
     3     6     7    1
     4     7    11    1
     5    11    12    1
     6    12    15    1
     7    15    16   am
     8    15    17    2
     9    12    13    1
    10    13    14    1
    11     7     8    1
    12     8     9    1
    13     9    10    1
    14    10     1    1
    15     1     2    2
    16     1     3    2
    17     1    20    1
    18    20    21   ar
    19    21    22   ar
    20    22    23   ar
    21    23    26    1
    22    26    27    1
    23    26    28    1
    24    26    30    1
    25    30    31    1
    26    30    32    1
    27    30    33    1
    28    23    24   ar
    29    24    25   ar
    30    10     5    1
    31    25    20   ar
    32    14    12    1
    33    16    18    1
    34    16    19    1
    35    28    29    1
@<TRIPOS>MOLECULE
*****
 33 35 0 0 0
SMALL
GASTEIGER

@<TRIPOS>ATOM
      1 S         141.1730  142.7151  163.6498 S.O2    1  UNL1        0.0633
      2 O         142.3857  143.5974  163.6239 O.2     1  UNL1       -0.1528
      3 O         139.9603  141.8328  163.6757 O.2     1  UNL1       -0.1528
      4 C         139.4523  144.8659  162.4610 C.3     1  UNL1        0.0206
      5 C         140.1902  143.9152  161.5656 C.3     1  UNL1        0.0956
      6 C         140.0677  144.0399  160.0758 C.3     1  UNL1        0.0900
      7 N         140.8056  143.0892  159.1805 N.3     1  UNL1       -0.2698
      8 C         141.6660  142.0138  159.7749 C.3     1  UNL1        0.0915
      9 C         141.7884  141.8891  161.2646 C.3     1  UNL1        0.1131
     10 N         141.0505  142.8398  162.1600 N.3     1  UNL1       -0.1541
     11 C         140.6831  143.2139  157.6906 C.3     1  UNL1        0.0807
     12 C         140.8080  144.5586  157.0378 C.3     1  UNL1        0.0833
     13 C         140.4458  145.7804  156.2466 C.3     1  UNL1        0.0105
     14 C         139.4492  144.6719  156.4127 C.3     1  UNL1        0.0105
     15 C         142.2102  144.9124  157.4362 C.2     1  UNL1        0.2198
     16 N         143.3135  143.9105  157.2665 N.am    1  UNL1       -0.3288
     17 O         142.5090  146.2682  158.0044 O.2     1  UNL1       -0.2753
     18 H         143.1174  143.0208  156.8936 H       1  UNL1        0.1449
     19 H         144.2338  144.1428  157.5280 H       1  UNL1        0.1449
     20 C         141.2955  142.5904  165.1396 C.ar    1  UNL1        0.1222
     21 C         140.1810  143.0618  166.0258 C.ar    1  UNL1        0.0197
     22 C         140.3036  142.9371  167.5157 C.ar    1  UNL1       -0.0004
     23 C         141.5407  142.3410  168.1191 C.ar    1  UNL1        0.0099
     24 C         142.6552  141.8696  167.2328 C.ar    1  UNL1       -0.0004
     25 C         142.5327  141.9943  165.7431 C.ar    1  UNL1        0.0197
     26 C         141.6632  142.2163  169.6089 C.3     1  UNL1        0.1945
     27 C         141.7857  142.0916  171.0987 C.3     1  UNL1        0.0428
     28 O         142.9945  142.9053  169.5570 O.3     1  UNL1       -0.3751
     29 H         143.2068  143.1298  168.6376 H       1  UNL1        0.2110
     30 C         140.3318  141.5274  169.6607 C.3     1  UNL1        0.4230
     31 F         139.0004  140.8383  169.7125 F       1  UNL1       -0.1673
     32 F         140.5772  140.2118  168.9832 F       1  UNL1       -0.1673
     33 F         139.7467  142.7115  170.3719 F       1  UNL1       -0.1673
@<TRIPOS>BOND
     1     5     4    1
     2     5     6    1
     3     6     7    1
     4     7    11    1
     5    11    12    1
     6    12    15    1
     7    15    16   am
     8    15    17    2
     9    12    13    1
    10    13    14    1
    11     7     8    1
    12     8     9    1
    13     9    10    1
    14    10     1    1
    15     1     2    2
    16     1     3    2
    17     1    20    1
    18    20    21   ar
    19    21    22   ar
    20    22    23   ar
    21    23    26    1
    22    26    27    1
    23    26    28    1
    24    26    30    1
    25    30    31    1
    26    30    32    1
    27    30    33    1
    28    23    24   ar
    29    24    25   ar
    30    10     5    1
    31    25    20   ar
    32    14    12    1
    33    16    18    1
    34    16    19    1
    35    28    29    1
@<TRIPOS>MOLECULE
*****
 33 35 0 0 0
SMALL
GASTEIGER

@<TRIPOS>ATOM
      1 S         142.1552  143.0004  163.9882 S.O2    1  UNL1        0.0633
      2 O         141.2452  141.8476  163.6835 O.2     1  UNL1       -0.1528
      3 O         143.0651  144.1533  164.2929 O.2     1  UNL1       -0.1528
      4 C         144.4399  141.6798  162.5614 C.3     1  UNL1        0.0206
      5 C         143.4980  142.5700  161.8061 C.3     1  UNL1        0.0956
      6 C         143.6985  142.7999  160.3375 C.3     1  UNL1        0.0900
      7 N         142.7566  143.6901  159.5823 N.3     1  UNL1       -0.2698
      8 C         141.6142  144.3504  160.2956 C.3     1  UNL1        0.0915
      9 C         141.4138  144.1205  161.7643 C.3     1  UNL1        0.1131
     10 N         142.3557  143.2303  162.5195 N.3     1  UNL1       -0.1541
     11 C         142.9571  143.9200  158.1135 C.3     1  UNL1        0.0807
     12 C         141.7788  143.9116  157.1854 C.3     1  UNL1        0.0833
     13 C         140.6689  143.3907  156.3213 C.3     1  UNL1        0.0105
     14 C         141.5664  142.4332  157.0474 C.3     1  UNL1        0.0105
     15 C         141.5819  145.3872  157.0010 C.2     1  UNL1        0.2198
     16 N         142.5557  146.3550  157.6051 N.am    1  UNL1       -0.3288
     17 O         140.4112  145.8949  156.2125 O.2     1  UNL1       -0.2753
     18 H         143.3240  146.0218  158.1227 H       1  UNL1        0.1449
     19 H         142.4264  147.3235  157.4841 H       1  UNL1        0.1449
     20 C         141.9546  142.7705  165.4568 C.ar    1  UNL1        0.1222
     21 C         140.6005  142.9728  166.0696 C.ar    1  UNL1        0.0197
     22 C         140.4000  142.7428  167.5383 C.ar    1  UNL1       -0.0004
     23 C         141.5536  142.3107  168.3941 C.ar    1  UNL1        0.0099
     24 C         142.9077  142.1084  167.7814 C.ar    1  UNL1       -0.0004
     25 C         143.1082  142.3384  166.3127 C.ar    1  UNL1        0.0197
     26 C         141.3531  142.0808  169.8628 C.3     1  UNL1        0.1945
     27 C         141.1525  141.8508  171.3314 C.3     1  UNL1        0.0428
     28 O         142.4829  143.0202  170.1641 O.3     1  UNL1       -0.3751
     29 H         142.8487  143.3629  169.3337 H       1  UNL1        0.2110
     30 C         140.2232  141.1413  169.5614 C.3     1  UNL1        0.4230
     31 F         139.0933  140.2018  169.2600 F       1  UNL1       -0.1673
     32 F         140.8874  139.9812  168.8809 F       1  UNL1       -0.1673
     33 F         139.2568  142.1026  170.1876 F       1  UNL1       -0.1673
@<TRIPOS>BOND
     1     5     4    1
     2     5     6    1
     3     6     7    1
     4     7    11    1
     5    11    12    1
     6    12    15    1
     7    15    16   am
     8    15    17    2
     9    12    13    1
    10    13    14    1
    11     7     8    1
    12     8     9    1
    13     9    10    1
    14    10     1    1
    15     1     2    2
    16     1     3    2
    17     1    20    1
    18    20    21   ar
    19    21    22   ar
    20    22    23   ar
    21    23    26    1
    22    26    27    1
    23    26    28    1
    24    26    30    1
    25    30    31    1
    26    30    32    1
    27    30    33    1
    28    23    24   ar
    29    24    25   ar
    30    10     5    1
    31    25    20   ar
    32    14    12    1
    33    16    18    1
    34    16    19    1
    35    28    29    1
@<TRIPOS>MOLECULE
*****
 33 35 0 0 0
SMALL
GASTEIGER

@<TRIPOS>ATOM
      1 S         139.9107  142.3236  163.9227 S.O2    1  UNL1        0.0633
      2 O         141.2452  141.7011  163.6370 O.2     1  UNL1       -0.1528
      3 O         138.5763  142.9461  164.2083 O.2     1  UNL1       -0.1528
      4 C         140.9657  145.0478  163.2403 C.3     1  UNL1        0.0206
      5 C         140.3686  144.1847  162.1686 C.3     1  UNL1        0.0956
      6 C         140.2990  144.6837  160.7558 C.3     1  UNL1        0.0900
      7 N         139.7019  143.8205  159.6841 N.3     1  UNL1       -0.2698
      8 C         139.1744  142.4585  160.0253 C.3     1  UNL1        0.0915
      9 C         139.2440  141.9595  161.4381 C.3     1  UNL1        0.1131
     10 N         139.8411  142.8226  162.5098 N.3     1  UNL1       -0.1541
     11 C         139.6323  144.3196  158.2712 C.3     1  UNL1        0.0807
     12 C         140.8451  144.9253  157.6292 C.3     1  UNL1        0.0833
     13 C         141.7172  145.9197  156.9216 C.3     1  UNL1        0.0105
     14 C         140.2854  146.2546  157.2174 C.3     1  UNL1        0.0105
     15 C         141.8261  143.8063  157.8180 C.2     1  UNL1        0.2198
     16 N         141.5173  142.4398  157.2823 N.am    1  UNL1       -0.3288
     17 O         143.1160  144.0540  158.5426 O.2     1  UNL1       -0.2753
     18 H         140.6707  142.2772  156.8067 H       1  UNL1        0.1449
     19 H         142.1611  141.7054  157.4062 H       1  UNL1        0.1449
     20 C         139.9804  141.8246  165.3355 C.ar    1  UNL1        0.1222
     21 C         140.4646  142.7311  166.4281 C.ar    1  UNL1        0.0197
     22 C         140.5342  142.2320  167.8410 C.ar    1  UNL1       -0.0004
     23 C         140.1196  140.8265  168.1612 C.ar    1  UNL1        0.0099
     24 C         139.6353  139.9200  167.0686 C.ar    1  UNL1       -0.0004
     25 C         139.5657  140.4190  165.6558 C.ar    1  UNL1        0.0197
     26 C         140.1892  140.3274  169.5740 C.3     1  UNL1        0.1945
     27 C         140.2589  139.8284  170.9869 C.3     1  UNL1        0.0428
     28 O         138.7259  140.0009  169.5308 O.3     1  UNL1       -0.3751
     29 H         138.3680  140.2348  168.6601 H       1  UNL1        0.2110
     30 C         141.6526  140.6540  169.6172 C.3     1  UNL1        0.4230
     31 F         143.1160  140.9805  169.6604 F       1  UNL1       -0.1673
     32 F         142.2662  139.7016  168.6341 F       1  UNL1       -0.1673
     33 F         141.3852  141.7170  170.6412 F       1  UNL1       -0.1673
@<TRIPOS>BOND
     1     5     4    1
     2     5     6    1
     3     6     7    1
     4     7    11    1
     5    11    12    1
     6    12    15    1
     7    15    16   am
     8    15    17    2
     9    12    13    1
    10    13    14    1
    11     7     8    1
    12     8     9    1
    13     9    10    1
    14    10     1    1
    15     1     2    2
    16     1     3    2
    17     1    20    1
    18    20    21   ar
    19    21    22   ar
    20    22    23   ar
    21    23    26    1
    22    26    27    1
    23    26    28    1
    24    26    30    1
    25    30    31    1
    26    30    32    1
    27    30    33    1
    28    23    24   ar
    29    24    25   ar
    30    10     5    1
    31    25    20   ar
    32    14    12    1
    33    16    18    1
    34    16    19    1
    35    28    29    1
