@<TRIPOS>MOLECULE
*****
 35 40 0 0 0
SMALL
GASTEIGER

@<TRIPOS>ATOM
      1 N         141.3122  143.0728  164.6843 N.pl3   1  UNL1       -0.3425
      2 C         140.7154  143.8611  163.5563 C.ar    1  UNL1        0.1300
      3 N         139.4957  144.7018  163.7919 N.ar    1  UNL1       -0.2094
      4 C         138.8989  145.4902  162.6639 C.ar    1  UNL1        0.2014
      5 N         139.5217  145.4377  161.3004 N.ar    1  UNL1       -0.2065
      6 C         140.7414  144.5970  161.0648 C.ar    1  UNL1        0.1482
      7 C         141.3382  143.8087  162.1928 C.ar    1  UNL1        0.0668
      8 C         142.5344  143.0746  161.6632 C.ar    1  UNL1        0.0229
      9 C         142.6768  143.4093  160.2080 C.ar    1  UNL1        0.0771
     10 N         141.5687  144.3501  159.8382 N.ar    1  UNL1       -0.3133
     11 H         140.9034  143.1072  165.5792 H       1  UNL1        0.1437
     12 H         142.1127  142.5210  164.5297 H       1  UNL1        0.1437
     13 C         143.4307  142.1655  162.4507 C.ar    1  UNL1        0.0046
     14 C         144.7888  142.6373  162.8782 C.ar    1  UNL1        0.0003
     15 C         145.6851  141.7283  163.6657 C.ar    1  UNL1        0.0031
     16 C         145.2233  140.3473  164.0257 C.ar    1  UNL1        0.0369
     17 C         143.8652  139.8754  163.5982 C.ar    1  UNL1        0.1391
     18 C         142.9689  140.7845  162.8107 C.ar    1  UNL1        0.0370
     19 O         143.4033  138.4944  163.9582 O.3     1  UNL1       -0.4706
     20 C         142.7439  138.2456  165.2822 C.3     1  UNL1        0.2320
     21 C         141.2827  138.5357  165.4587 C.ar    1  UNL1        0.0212
     22 C         140.2585  137.6380  164.8302 C.ar    1  UNL1       -0.0007
     23 C         138.7975  137.9282  165.0067 C.ar    1  UNL1       -0.0002
     24 C         138.3607  139.1161  165.8117 C.ar    1  UNL1       -0.0000
     25 C         139.3849  140.0138  166.4403 C.ar    1  UNL1       -0.0002
     26 C         140.8459  139.7236  166.2638 C.ar    1  UNL1       -0.0007
     27 C         141.3298  144.9405  158.4801 C.3     1  UNL1        0.0870
     28 C         142.1429  145.7589  157.5212 C.3     1  UNL1        0.0240
     29 C         140.9920  145.7756  156.5595 C.3     1  UNL1        0.0197
     30 C         140.1789  144.9573  157.5183 C.3     1  UNL1        0.0240
     31 C         140.7531  146.3660  155.2014 C.3     1  UNL1        0.0722
     32 N         140.0266  147.6715  155.0684 N.3     1  UNL1       -0.2726
     33 C         140.0803  148.8221  154.1075 C.3     1  UNL1        0.0735
     34 C         138.9992  149.5179  154.8802 C.3     1  UNL1        0.0346
     35 C         138.9455  148.3674  155.8411 C.3     1  UNL1        0.0735
@<TRIPOS>BOND
     1     1     2    1
     2     2     3   ar
     3     3     4   ar
     4     4     5   ar
     5     5     6   ar
     6     6     7   ar
     7     7     8   ar
     8     8    13    1
     9    13    14   ar
    10    14    15   ar
    11    15    16   ar
    12    16    17   ar
    13    17    19    1
    14    19    20    1
    15    20    21    1
    16    21    22   ar
    17    22    23   ar
    18    23    24   ar
    19    24    25   ar
    20    25    26   ar
    21    17    18   ar
    22     8     9   ar
    23     9    10   ar
    24    27    10    1
    25    27    28    1
    26    28    29    1
    27    29    31    1
    28    31    32    1
    29    32    33    1
    30    33    34    1
    31    34    35    1
    32    29    30    1
    33     7     2   ar
    34    18    13   ar
    35    30    27    1
    36    10     6   ar
    37    35    32    1
    38    26    21   ar
    39     1    11    1
    40     1    12    1
@<TRIPOS>MOLECULE
*****
 35 40 0 0 0
SMALL
GASTEIGER

@<TRIPOS>ATOM
      1 N         141.1590  144.8936  162.6944 N.pl3   1  UNL1       -0.3425
      2 C         141.5254  144.7149  161.2509 C.ar    1  UNL1        0.1300
      3 N         140.7947  145.4844  160.1908 N.ar    1  UNL1       -0.2094
      4 C         141.1611  145.3057  158.7472 C.ar    1  UNL1        0.2014
      5 N         142.2583  144.3575  158.3638 N.ar    1  UNL1       -0.2065
      6 C         142.9890  143.5880  159.4239 C.ar    1  UNL1        0.1482
      7 C         142.6226  143.7667  160.8674 C.ar    1  UNL1        0.0668
      8 C         143.5131  142.8787  161.6851 C.ar    1  UNL1        0.0229
      9 C         144.4299  142.1512  160.7469 C.ar    1  UNL1        0.0771
     10 N         144.1060  142.5895  159.3494 N.ar    1  UNL1       -0.3133
     11 H         140.4389  145.5160  162.9461 H       1  UNL1        0.1437
     12 H         141.6386  144.3886  163.3902 H       1  UNL1        0.1437
     13 C         143.4907  142.7422  163.1787 C.ar    1  UNL1        0.0046
     14 C         144.3945  143.5908  164.0230 C.ar    1  UNL1        0.0003
     15 C         144.3721  143.4543  165.5166 C.ar    1  UNL1        0.0031
     16 C         143.4459  142.4692  166.1659 C.ar    1  UNL1        0.0369
     17 C         142.5420  141.6206  165.3216 C.ar    1  UNL1        0.1391
     18 C         142.5644  141.7571  163.8280 C.ar    1  UNL1        0.0370
     19 O         141.6157  140.6355  165.9709 O.3     1  UNL1       -0.4706
     20 C         140.2937  141.0933  166.5120 C.3     1  UNL1        0.2320
     21 C         139.4836  142.1047  165.7563 C.ar    1  UNL1        0.0212
     22 C         139.6293  143.5651  166.0658 C.ar    1  UNL1       -0.0007
     23 C         138.8191  144.5763  165.3101 C.ar    1  UNL1       -0.0002
     24 C         137.8633  144.1271  164.2449 C.ar    1  UNL1       -0.0000
     25 C         137.7176  142.6666  163.9354 C.ar    1  UNL1       -0.0002
     26 C         138.5278  141.6555  164.6911 C.ar    1  UNL1       -0.0007
     27 C         144.7806  142.1131  158.0973 C.3     1  UNL1        0.0870
     28 C         144.4615  141.0961  157.0417 C.3     1  UNL1        0.0240
     29 C         145.7345  141.4392  156.3264 C.3     1  UNL1        0.0197
     30 C         146.0536  142.4561  157.3819 C.3     1  UNL1        0.0240
     31 C         146.4092  140.9628  155.0742 C.3     1  UNL1        0.0722
     32 N         147.6033  141.6966  154.5399 N.3     1  UNL1       -0.2726
     33 C         147.8292  142.7060  153.4536 C.3     1  UNL1        0.0735
     34 C         149.2921  142.7344  153.7842 C.3     1  UNL1        0.0346
     35 C         149.0662  141.7250  154.8705 C.3     1  UNL1        0.0735
@<TRIPOS>BOND
     1     1     2    1
     2     2     3   ar
     3     3     4   ar
     4     4     5   ar
     5     5     6   ar
     6     6     7   ar
     7     7     8   ar
     8     8    13    1
     9    13    14   ar
    10    14    15   ar
    11    15    16   ar
    12    16    17   ar
    13    17    19    1
    14    19    20    1
    15    20    21    1
    16    21    22   ar
    17    22    23   ar
    18    23    24   ar
    19    24    25   ar
    20    25    26   ar
    21    17    18   ar
    22     8     9   ar
    23     9    10   ar
    24    27    10    1
    25    27    28    1
    26    28    29    1
    27    29    31    1
    28    31    32    1
    29    32    33    1
    30    33    34    1
    31    34    35    1
    32    29    30    1
    33     7     2   ar
    34    18    13   ar
    35    30    27    1
    36    10     6   ar
    37    35    32    1
    38    26    21   ar
    39     1    11    1
    40     1    12    1
@<TRIPOS>MOLECULE
*****
 35 40 0 0 0
SMALL
GASTEIGER

@<TRIPOS>ATOM
      1 N         142.4001  144.8061  161.3958 N.pl3   1  UNL1       -0.3425
      2 C         141.8004  144.4449  160.0692 C.ar    1  UNL1        0.1300
      3 N         142.5073  144.8180  158.8000 N.ar    1  UNL1       -0.2094
      4 C         141.9076  144.4568  157.4734 C.ar    1  UNL1        0.2014
      5 N         140.6009  143.7225  157.4161 N.ar    1  UNL1       -0.2065
      6 C         139.8940  143.3494  158.6853 C.ar    1  UNL1        0.1482
      7 C         140.4937  143.7106  160.0119 C.ar    1  UNL1        0.0668
      8 C         139.5734  143.2141  161.0873 C.ar    1  UNL1        0.0229
      9 C         138.4048  142.5461  160.4253 C.ar    1  UNL1        0.0771
     10 N         138.6030  142.6297  158.9408 N.ar    1  UNL1       -0.3133
     11 H         143.2578  145.2881  161.4334 H       1  UNL1        0.1437
     12 H         141.9362  144.5612  162.2289 H       1  UNL1        0.1437
     13 C         139.7845  143.3601  162.5651 C.ar    1  UNL1        0.0046
     14 C         139.1405  144.4939  163.3064 C.ar    1  UNL1        0.0003
     15 C         139.3517  144.6399  164.7843 C.ar    1  UNL1        0.0031
     16 C         140.2069  143.6520  165.5209 C.ar    1  UNL1        0.0369
     17 C         140.8510  142.5181  164.7797 C.ar    1  UNL1        0.1391
     18 C         140.6398  142.3721  163.3018 C.ar    1  UNL1        0.0370
     19 O         141.7062  141.5301  165.5162 O.3     1  UNL1       -0.4706
     20 C         141.5347  140.0603  165.2709 C.3     1  UNL1        0.2320
     21 C         140.2866  139.3643  165.7273 C.ar    1  UNL1        0.0212
     22 C         139.5372  139.8752  166.9220 C.ar    1  UNL1       -0.0007
     23 C         138.2892  139.1793  167.3783 C.ar    1  UNL1       -0.0002
     24 C         137.7907  137.9725  166.6399 C.ar    1  UNL1       -0.0000
     25 C         138.5401  137.4617  165.4452 C.ar    1  UNL1       -0.0002
     26 C         139.7881  138.1576  164.9889 C.ar    1  UNL1       -0.0007
     27 C         137.6733  142.0885  157.8954 C.3     1  UNL1        0.0870
     28 C         137.0824  142.6208  156.6235 C.3     1  UNL1        0.0240
     29 C         136.3586  141.3234  156.4168 C.3     1  UNL1        0.0197
     30 C         136.9495  140.7912  157.6887 C.3     1  UNL1        0.0240
     31 C         135.4290  140.7823  155.3714 C.3     1  UNL1        0.0722
     32 N         133.9572  140.6973  155.6480 N.3     1  UNL1       -0.2726
     33 C         132.7289  141.3226  155.0560 C.3     1  UNL1        0.0735
     34 C         131.8756  140.5773  156.0392 C.3     1  UNL1        0.0346
     35 C         133.1039  139.9520  156.6311 C.3     1  UNL1        0.0735
@<TRIPOS>BOND
     1     1     2    1
     2     2     3   ar
     3     3     4   ar
     4     4     5   ar
     5     5     6   ar
     6     6     7   ar
     7     7     8   ar
     8     8    13    1
     9    13    14   ar
    10    14    15   ar
    11    15    16   ar
    12    16    17   ar
    13    17    19    1
    14    19    20    1
    15    20    21    1
    16    21    22   ar
    17    22    23   ar
    18    23    24   ar
    19    24    25   ar
    20    25    26   ar
    21    17    18   ar
    22     8     9   ar
    23     9    10   ar
    24    27    10    1
    25    27    28    1
    26    28    29    1
    27    29    31    1
    28    31    32    1
    29    32    33    1
    30    33    34    1
    31    34    35    1
    32    29    30    1
    33     7     2   ar
    34    18    13   ar
    35    30    27    1
    36    10     6   ar
    37    35    32    1
    38    26    21   ar
    39     1    11    1
    40     1    12    1
@<TRIPOS>MOLECULE
*****
 35 40 0 0 0
SMALL
GASTEIGER

@<TRIPOS>ATOM
      1 N         141.5843  143.5475  164.4215 N.pl3   1  UNL1       -0.3425
      2 C         141.0907  144.2448  163.1886 C.ar    1  UNL1        0.1300
      3 N         139.9834  145.2517  163.2889 N.ar    1  UNL1       -0.2094
      4 C         139.4898  145.9490  162.0559 C.ar    1  UNL1        0.2014
      5 N         140.1035  145.6394  160.7227 N.ar    1  UNL1       -0.2065
      6 C         141.2108  144.6326  160.6224 C.ar    1  UNL1        0.1482
      7 C         141.7044  143.9353  161.8553 C.ar    1  UNL1        0.0668
      8 C         142.8019  142.9970  161.4491 C.ar    1  UNL1        0.0229
      9 C         142.9867  143.1143  159.9652 C.ar    1  UNL1        0.0771
     10 N         142.0033  144.1252  159.4543 N.ar    1  UNL1       -0.3133
     11 H         141.1815  143.7506  165.2965 H       1  UNL1        0.1437
     12 H         142.3111  142.8866  164.3556 H       1  UNL1        0.1437
     13 C         143.5784  142.0989  162.3660 C.ar    1  UNL1        0.0046
     14 C         144.9490  142.4997  162.8250 C.ar    1  UNL1        0.0003
     15 C         145.7255  141.6017  163.7418 C.ar    1  UNL1        0.0031
     16 C         145.1313  140.3027  164.1997 C.ar    1  UNL1        0.0369
     17 C         143.7607  139.9018  163.7407 C.ar    1  UNL1        0.1391
     18 C         142.9842  140.7998  162.8239 C.ar    1  UNL1        0.0370
     19 O         143.1665  138.6029  164.1985 O.3     1  UNL1       -0.4706
     20 C         141.7456  138.2660  163.8557 C.3     1  UNL1        0.2320
     21 C         140.6502  138.5424  164.8425 C.ar    1  UNL1        0.0212
     22 C         140.7649  139.7041  165.7846 C.ar    1  UNL1       -0.0007
     23 C         139.6696  139.9804  166.7713 C.ar    1  UNL1       -0.0002
     24 C         138.4595  139.0952  166.8161 C.ar    1  UNL1       -0.0000
     25 C         138.3448  137.9335  165.8741 C.ar    1  UNL1       -0.0002
     26 C         139.4401  137.6572  164.8873 C.ar    1  UNL1       -0.0007
     27 C         141.8408  144.5536  158.0259 C.3     1  UNL1        0.0870
     28 C         141.2841  143.9201  156.7854 C.3     1  UNL1        0.0240
     29 C         141.6111  145.1592  156.0059 C.3     1  UNL1        0.0197
     30 C         142.1678  145.7926  157.2464 C.3     1  UNL1        0.0240
     31 C         141.4487  145.5876  154.5776 C.3     1  UNL1        0.0722
     32 N         142.6200  145.5382  153.6419 N.3     1  UNL1       -0.2726
     33 C         143.9178  144.7868  153.6059 C.3     1  UNL1        0.0735
     34 C         144.2767  145.4684  152.3188 C.3     1  UNL1        0.0346
     35 C         142.9790  146.2198  152.3548 C.3     1  UNL1        0.0735
@<TRIPOS>BOND
     1     1     2    1
     2     2     3   ar
     3     3     4   ar
     4     4     5   ar
     5     5     6   ar
     6     6     7   ar
     7     7     8   ar
     8     8    13    1
     9    13    14   ar
    10    14    15   ar
    11    15    16   ar
    12    16    17   ar
    13    17    19    1
    14    19    20    1
    15    20    21    1
    16    21    22   ar
    17    22    23   ar
    18    23    24   ar
    19    24    25   ar
    20    25    26   ar
    21    17    18   ar
    22     8     9   ar
    23     9    10   ar
    24    27    10    1
    25    27    28    1
    26    28    29    1
    27    29    31    1
    28    31    32    1
    29    32    33    1
    30    33    34    1
    31    34    35    1
    32    29    30    1
    33     7     2   ar
    34    18    13   ar
    35    30    27    1
    36    10     6   ar
    37    35    32    1
    38    26    21   ar
    39     1    11    1
    40     1    12    1
@<TRIPOS>MOLECULE
*****
 35 40 0 0 0
SMALL
GASTEIGER

@<TRIPOS>ATOM
      1 N         138.0735  140.7136  162.6410 N.pl3   1  UNL1       -0.3425
      2 C         138.1752  141.0313  161.1786 C.ar    1  UNL1        0.1300
      3 N         137.6127  140.0807  160.1637 N.ar    1  UNL1       -0.2094
      4 C         137.7143  140.3984  158.7013 C.ar    1  UNL1        0.2014
      5 N         138.3785  141.6666  158.2537 N.ar    1  UNL1       -0.2065
      6 C         138.9410  142.6172  159.2685 C.ar    1  UNL1        0.1482
      7 C         138.8393  142.2995  160.7310 C.ar    1  UNL1        0.0668
      8 C         139.4815  143.4197  161.4944 C.ar    1  UNL1        0.0229
      9 C         139.9800  144.4298  160.5038 C.ar    1  UNL1        0.0771
     10 N         139.6459  143.9338  159.1281 N.ar    1  UNL1       -0.3133
     11 H         137.6376  139.8811  162.9348 H       1  UNL1        0.1437
     12 H         138.4427  141.3375  163.3071 H       1  UNL1        0.1437
     13 C         139.6036  143.5134  162.9864 C.ar    1  UNL1        0.0046
     14 C         138.6225  144.3347  163.7692 C.ar    1  UNL1        0.0003
     15 C         138.7447  144.4284  165.2613 C.ar    1  UNL1        0.0031
     16 C         139.8480  143.7008  165.9706 C.ar    1  UNL1        0.0369
     17 C         140.8292  142.8795  165.1879 C.ar    1  UNL1        0.1391
     18 C         140.7071  142.7858  163.6958 C.ar    1  UNL1        0.0370
     19 O         141.9326  142.1519  165.8971 O.3     1  UNL1       -0.4706
     20 C         141.6149  140.9711  166.7660 C.3     1  UNL1        0.2320
     21 C         140.6040  139.9587  166.3154 C.ar    1  UNL1        0.0212
     22 C         140.9630  138.9614  165.2540 C.ar    1  UNL1       -0.0007
     23 C         139.9521  137.9490  164.8034 C.ar    1  UNL1       -0.0002
     24 C         138.5821  137.9339  165.4141 C.ar    1  UNL1       -0.0000
     25 C         138.2231  138.9312  166.4755 C.ar    1  UNL1       -0.0002
     26 C         139.2340  139.9436  166.9261 C.ar    1  UNL1       -0.0007
     27 C         139.9615  144.6318  157.8385 C.3     1  UNL1        0.0870
     28 C         139.6251  144.3971  156.3955 C.3     1  UNL1        0.0240
     29 C         140.4076  145.6188  156.0145 C.3     1  UNL1        0.0197
     30 C         140.7439  145.8534  157.4574 C.3     1  UNL1        0.0240
     31 C         140.7231  146.3168  154.7248 C.3     1  UNL1        0.0722
     32 N         140.2125  147.7057  154.4793 N.3     1  UNL1       -0.2726
     33 C         140.5372  148.7981  153.5039 C.3     1  UNL1        0.0735
     34 C         139.4905  149.6699  154.1319 C.3     1  UNL1        0.0346
     35 C         139.1658  148.5775  155.1073 C.3     1  UNL1        0.0735
@<TRIPOS>BOND
     1     1     2    1
     2     2     3   ar
     3     3     4   ar
     4     4     5   ar
     5     5     6   ar
     6     6     7   ar
     7     7     8   ar
     8     8    13    1
     9    13    14   ar
    10    14    15   ar
    11    15    16   ar
    12    16    17   ar
    13    17    19    1
    14    19    20    1
    15    20    21    1
    16    21    22   ar
    17    22    23   ar
    18    23    24   ar
    19    24    25   ar
    20    25    26   ar
    21    17    18   ar
    22     8     9   ar
    23     9    10   ar
    24    27    10    1
    25    27    28    1
    26    28    29    1
    27    29    31    1
    28    31    32    1
    29    32    33    1
    30    33    34    1
    31    34    35    1
    32    29    30    1
    33     7     2   ar
    34    18    13   ar
    35    30    27    1
    36    10     6   ar
    37    35    32    1
    38    26    21   ar
    39     1    11    1
    40     1    12    1
@<TRIPOS>MOLECULE
*****
 35 40 0 0 0
SMALL
GASTEIGER

@<TRIPOS>ATOM
      1 N         142.9782  138.5164  158.2508 N.pl3   1  UNL1       -0.3425
      2 C         142.8594  138.5127  159.7460 C.ar    1  UNL1        0.1300
      3 N         144.0917  138.4185  160.5961 N.ar    1  UNL1       -0.2094
      4 C         143.9729  138.4148  162.0914 C.ar    1  UNL1        0.2014
      5 N         142.6219  138.5052  162.7366 N.ar    1  UNL1       -0.2065
      6 C         141.3896  138.5994  161.8866 C.ar    1  UNL1        0.1482
      7 C         141.5084  138.6031  160.3913 C.ar    1  UNL1        0.0668
      8 C         140.1265  138.7057  159.8168 C.ar    1  UNL1        0.0229
      9 C         139.1537  138.7653  160.9570 C.ar    1  UNL1        0.0771
     10 N         139.9343  138.6996  162.2362 N.ar    1  UNL1       -0.3133
     11 H         143.8650  138.4570  157.8273 H       1  UNL1        0.1437
     12 H         142.1694  138.5782  157.6929 H       1  UNL1        0.1437
     13 C         139.7786  138.7422  158.3582 C.ar    1  UNL1        0.0046
     14 C         139.1935  139.9858  157.7576 C.ar    1  UNL1        0.0003
     15 C         138.8456  140.0223  156.2989 C.ar    1  UNL1        0.0031
     16 C         139.0828  138.8151  155.4409 C.ar    1  UNL1        0.0369
     17 C         139.6679  137.5713  156.0415 C.ar    1  UNL1        0.1391
     18 C         140.0158  137.5348  157.5001 C.ar    1  UNL1        0.0370
     19 O         139.9052  136.3640  155.1835 O.3     1  UNL1       -0.4706
     20 C         141.3060  135.9485  154.8445 C.3     1  UNL1        0.2320
     21 C         141.9482  134.8080  155.5774 C.ar    1  UNL1        0.0212
     22 C         142.9558  135.0810  156.6545 C.ar    1  UNL1       -0.0007
     23 C         143.5978  133.9406  157.3873 C.ar    1  UNL1       -0.0002
     24 C         143.2323  132.5271  157.0431 C.ar    1  UNL1       -0.0000
     25 C         142.2247  132.2541  155.9660 C.ar    1  UNL1       -0.0002
     26 C         141.5826  133.3945  155.2332 C.ar    1  UNL1       -0.0007
     27 C         139.3605  138.7290  163.6218 C.3     1  UNL1        0.0870
     28 C         139.3152  137.7668  164.7717 C.3     1  UNL1        0.0240
     29 C         138.5490  138.7705  165.5813 C.3     1  UNL1        0.0197
     30 C         138.5942  139.7326  164.4315 C.3     1  UNL1        0.0240
     31 C         137.9751  138.7999  166.9669 C.3     1  UNL1        0.0722
     32 N         138.7308  139.4671  168.0777 N.3     1  UNL1       -0.2726
     33 C         138.4242  139.8303  169.5004 C.3     1  UNL1        0.0735
     34 C         139.7994  140.4106  169.6486 C.3     1  UNL1        0.0346
     35 C         140.1060  140.0475  168.2259 C.3     1  UNL1        0.0735
@<TRIPOS>BOND
     1     1     2    1
     2     2     3   ar
     3     3     4   ar
     4     4     5   ar
     5     5     6   ar
     6     6     7   ar
     7     7     8   ar
     8     8    13    1
     9    13    14   ar
    10    14    15   ar
    11    15    16   ar
    12    16    17   ar
    13    17    19    1
    14    19    20    1
    15    20    21    1
    16    21    22   ar
    17    22    23   ar
    18    23    24   ar
    19    24    25   ar
    20    25    26   ar
    21    17    18   ar
    22     8     9   ar
    23     9    10   ar
    24    27    10    1
    25    27    28    1
    26    28    29    1
    27    29    31    1
    28    31    32    1
    29    32    33    1
    30    33    34    1
    31    34    35    1
    32    29    30    1
    33     7     2   ar
    34    18    13   ar
    35    30    27    1
    36    10     6   ar
    37    35    32    1
    38    26    21   ar
    39     1    11    1
    40     1    12    1
@<TRIPOS>MOLECULE
*****
 35 40 0 0 0
SMALL
GASTEIGER

@<TRIPOS>ATOM
      1 N         139.1050  142.3726  163.4099 N.pl3   1  UNL1       -0.3425
      2 C         139.4223  143.4895  162.4602 C.ar    1  UNL1        0.1300
      3 N         139.6317  144.8804  162.9814 N.ar    1  UNL1       -0.2094
      4 C         139.9490  145.9973  162.0317 C.ar    1  UNL1        0.2014
      5 N         140.0570  145.7233  160.5609 N.ar    1  UNL1       -0.2065
      6 C         139.8476  144.3325  160.0398 C.ar    1  UNL1        0.1482
      7 C         139.5303  143.2156  160.9894 C.ar    1  UNL1        0.0668
      8 C         139.3766  141.9563  160.1891 C.ar    1  UNL1        0.0229
      9 C         139.5989  142.2949  158.7448 C.ar    1  UNL1        0.0771
     10 N         139.8900  143.7634  158.6526 N.ar    1  UNL1       -0.3133
     11 H         139.0342  142.5524  164.3752 H       1  UNL1        0.1437
     12 H         138.9676  141.4597  163.0678 H       1  UNL1        0.1437
     13 C         139.0567  140.5970  160.7369 C.ar    1  UNL1        0.0046
     14 C         137.6347  140.1219  160.7814 C.ar    1  UNL1        0.0003
     15 C         137.3148  138.7626  161.3292 C.ar    1  UNL1        0.0031
     16 C         138.4170  137.8784  161.8325 C.ar    1  UNL1        0.0369
     17 C         139.8391  138.3535  161.7880 C.ar    1  UNL1        0.1391
     18 C         140.1590  139.7128  161.2402 C.ar    1  UNL1        0.0370
     19 O         140.9413  137.4694  162.2913 O.3     1  UNL1       -0.4706
     20 C         141.3763  137.5551  163.7243 C.3     1  UNL1        0.2320
     21 C         140.4598  138.1501  164.7520 C.ar    1  UNL1        0.0212
     22 C         139.1672  137.4677  165.0890 C.ar    1  UNL1       -0.0007
     23 C         138.2508  138.0628  166.1167 C.ar    1  UNL1       -0.0002
     24 C         138.6269  139.3401  166.8073 C.ar    1  UNL1       -0.0000
     25 C         139.9195  140.0224  166.4703 C.ar    1  UNL1       -0.0002
     26 C         140.8359  139.4274  165.4426 C.ar    1  UNL1       -0.0007
     27 C         140.1737  144.5287  157.3940 C.3     1  UNL1        0.0870
     28 C         139.5745  144.5692  156.0194 C.3     1  UNL1        0.0240
     29 C         140.5749  145.6109  155.6141 C.3     1  UNL1        0.0197
     30 C         141.1740  145.5703  156.9887 C.3     1  UNL1        0.0240
     31 C         140.8586  146.3761  154.3556 C.3     1  UNL1        0.0722
     32 N         140.3309  147.7705  154.1906 N.3     1  UNL1       -0.2726
     33 C         139.3552  148.6306  154.9377 C.3     1  UNL1        0.0735
     34 C         139.5847  149.7425  153.9573 C.3     1  UNL1        0.0346
     35 C         140.5604  148.8824  153.2102 C.3     1  UNL1        0.0735
@<TRIPOS>BOND
     1     1     2    1
     2     2     3   ar
     3     3     4   ar
     4     4     5   ar
     5     5     6   ar
     6     6     7   ar
     7     7     8   ar
     8     8    13    1
     9    13    14   ar
    10    14    15   ar
    11    15    16   ar
    12    16    17   ar
    13    17    19    1
    14    19    20    1
    15    20    21    1
    16    21    22   ar
    17    22    23   ar
    18    23    24   ar
    19    24    25   ar
    20    25    26   ar
    21    17    18   ar
    22     8     9   ar
    23     9    10   ar
    24    27    10    1
    25    27    28    1
    26    28    29    1
    27    29    31    1
    28    31    32    1
    29    32    33    1
    30    33    34    1
    31    34    35    1
    32    29    30    1
    33     7     2   ar
    34    18    13   ar
    35    30    27    1
    36    10     6   ar
    37    35    32    1
    38    26    21   ar
    39     1    11    1
    40     1    12    1
@<TRIPOS>MOLECULE
*****
 35 40 0 0 0
SMALL
GASTEIGER

@<TRIPOS>ATOM
      1 N         141.7642  140.6378  161.9594 N.pl3   1  UNL1       -0.3425
      2 C         142.3972  140.2107  160.6684 C.ar    1  UNL1        0.1300
      3 N         142.0501  138.8813  160.0666 N.ar    1  UNL1       -0.2094
      4 C         142.6832  138.4542  158.7755 C.ar    1  UNL1        0.2014
      5 N         143.6634  139.3565  158.0863 N.ar    1  UNL1       -0.2065
      6 C         144.0105  140.6858  158.6881 C.ar    1  UNL1        0.1482
      7 C         143.3774  141.1129  159.9792 C.ar    1  UNL1        0.0668
      8 C         143.9107  142.4703  160.3301 C.ar    1  UNL1        0.0229
      9 C         144.8733  142.8821  159.2560 C.ar    1  UNL1        0.0771
     10 N         144.9350  141.7793  158.2412 N.ar    1  UNL1       -0.3133
     11 H         141.1208  140.0455  162.4118 H       1  UNL1        0.1437
     12 H         141.9920  141.5103  162.3544 H       1  UNL1        0.1437
     13 C         143.5454  143.2746  161.5424 C.ar    1  UNL1        0.0046
     14 C         144.3804  143.1800  162.7848 C.ar    1  UNL1        0.0003
     15 C         144.0151  143.9844  163.9971 C.ar    1  UNL1        0.0031
     16 C         142.8147  144.8834  163.9670 C.ar    1  UNL1        0.0369
     17 C         141.9797  144.9780  162.7245 C.ar    1  UNL1        0.1391
     18 C         142.3449  144.1737  161.5122 C.ar    1  UNL1        0.0370
     19 O         140.7793  145.8769  162.6943 O.3     1  UNL1       -0.4706
     20 C         139.5056  145.4060  162.0571 C.3     1  UNL1        0.2320
     21 C         138.8282  144.1663  162.5617 C.ar    1  UNL1        0.0212
     22 C         138.5773  143.0171  161.6309 C.ar    1  UNL1       -0.0007
     23 C         137.9000  141.7775  162.1355 C.ar    1  UNL1       -0.0002
     24 C         137.4737  141.6871  163.5708 C.ar    1  UNL1       -0.0000
     25 C         137.7246  142.8363  164.5016 C.ar    1  UNL1       -0.0002
     26 C         138.4019  144.0759  163.9970 C.ar    1  UNL1       -0.0007
     27 C         145.7739  141.7712  156.9978 C.3     1  UNL1        0.0870
     28 C         145.7458  141.0121  155.7042 C.3     1  UNL1        0.0240
     29 C         146.9603  141.7597  155.2392 C.3     1  UNL1        0.0197
     30 C         146.9883  142.5187  156.5327 C.3     1  UNL1        0.0240
     31 C         147.7992  141.7516  153.9957 C.3     1  UNL1        0.0722
     32 N         149.2840  141.9412  154.0916 N.3     1  UNL1       -0.2726
     33 C         150.3700  141.3861  154.9649 C.3     1  UNL1        0.0735
     34 C         151.3840  142.2091  154.2271 C.3     1  UNL1        0.0346
     35 C         150.2981  142.7643  153.3538 C.3     1  UNL1        0.0735
@<TRIPOS>BOND
     1     1     2    1
     2     2     3   ar
     3     3     4   ar
     4     4     5   ar
     5     5     6   ar
     6     6     7   ar
     7     7     8   ar
     8     8    13    1
     9    13    14   ar
    10    14    15   ar
    11    15    16   ar
    12    16    17   ar
    13    17    19    1
    14    19    20    1
    15    20    21    1
    16    21    22   ar
    17    22    23   ar
    18    23    24   ar
    19    24    25   ar
    20    25    26   ar
    21    17    18   ar
    22     8     9   ar
    23     9    10   ar
    24    27    10    1
    25    27    28    1
    26    28    29    1
    27    29    31    1
    28    31    32    1
    29    32    33    1
    30    33    34    1
    31    34    35    1
    32    29    30    1
    33     7     2   ar
    34    18    13   ar
    35    30    27    1
    36    10     6   ar
    37    35    32    1
    38    26    21   ar
    39     1    11    1
    40     1    12    1
@<TRIPOS>MOLECULE
*****
 35 40 0 0 0
SMALL
GASTEIGER

@<TRIPOS>ATOM
      1 N         140.0958  145.1790  164.1159 N.pl3   1  UNL1       -0.3425
      2 C         140.3924  145.1937  162.6456 C.ar    1  UNL1        0.1300
      3 N         139.6586  146.1396  161.7419 N.ar    1  UNL1       -0.2094
      4 C         139.9552  146.1543  160.2716 C.ar    1  UNL1        0.2014
      5 N         140.9855  145.2231  159.7050 N.ar    1  UNL1       -0.2065
      6 C         141.7193  144.2771  160.6086 C.ar    1  UNL1        0.1482
      7 C         141.4227  144.2624  162.0790 C.ar    1  UNL1        0.0668
      8 C         142.2998  143.2271  162.7184 C.ar    1  UNL1        0.0229
      9 C         143.1384  142.6019  161.6433 C.ar    1  UNL1        0.0771
     10 N         142.7796  143.2509  160.3394 N.ar    1  UNL1       -0.3133
     11 H         139.4196  145.7902  164.4878 H       1  UNL1        0.1437
     12 H         140.5775  144.5581  164.7090 H       1  UNL1        0.1437
     13 C         142.3325  142.8782  164.1769 C.ar    1  UNL1        0.0046
     14 C         143.5641  143.1552  164.9869 C.ar    1  UNL1        0.0003
     15 C         143.5968  142.8063  166.4454 C.ar    1  UNL1        0.0031
     16 C         142.3978  142.1804  167.0939 C.ar    1  UNL1        0.0369
     17 C         141.1661  141.9034  166.2839 C.ar    1  UNL1        0.1391
     18 C         141.1334  142.2523  164.8254 C.ar    1  UNL1        0.0370
     19 O         139.9670  141.2775  166.9323 O.3     1  UNL1       -0.4706
     20 C         139.8345  139.7841  166.9805 C.3     1  UNL1        0.2320
     21 C         139.9974  138.9759  165.7273 C.ar    1  UNL1        0.0212
     22 C         138.8115  138.7068  164.8490 C.ar    1  UNL1       -0.0007
     23 C         138.9744  137.8986  163.5959 C.ar    1  UNL1       -0.0002
     24 C         140.3231  137.3595  163.2211 C.ar    1  UNL1       -0.0000
     25 C         141.5089  137.6286  164.0994 C.ar    1  UNL1       -0.0002
     26 C         141.3460  138.4368  165.3525 C.ar    1  UNL1       -0.0007
     27 C         143.3764  142.9300  159.0011 C.3     1  UNL1        0.0870
     28 C         144.4389  141.9912  158.5112 C.3     1  UNL1        0.0240
     29 C         144.2204  142.4760  157.1086 C.3     1  UNL1        0.0197
     30 C         143.1580  143.4148  157.5986 C.3     1  UNL1        0.0240
     31 C         144.8172  142.1551  155.7704 C.3     1  UNL1        0.0722
     32 N         146.3073  142.0963  155.6083 N.3     1  UNL1       -0.2726
     33 C         147.2391  141.6438  154.5234 C.3     1  UNL1        0.0735
     34 C         148.4145  142.0130  155.3790 C.3     1  UNL1        0.0346
     35 C         147.4827  142.4654  156.4639 C.3     1  UNL1        0.0735
@<TRIPOS>BOND
     1     1     2    1
     2     2     3   ar
     3     3     4   ar
     4     4     5   ar
     5     5     6   ar
     6     6     7   ar
     7     7     8   ar
     8     8    13    1
     9    13    14   ar
    10    14    15   ar
    11    15    16   ar
    12    16    17   ar
    13    17    19    1
    14    19    20    1
    15    20    21    1
    16    21    22   ar
    17    22    23   ar
    18    23    24   ar
    19    24    25   ar
    20    25    26   ar
    21    17    18   ar
    22     8     9   ar
    23     9    10   ar
    24    27    10    1
    25    27    28    1
    26    28    29    1
    27    29    31    1
    28    31    32    1
    29    32    33    1
    30    33    34    1
    31    34    35    1
    32    29    30    1
    33     7     2   ar
    34    18    13   ar
    35    30    27    1
    36    10     6   ar
    37    35    32    1
    38    26    21   ar
    39     1    11    1
    40     1    12    1
