@<TRIPOS>MOLECULE
*****
 28 31 0 0 0
SMALL
GASTEIGER

@<TRIPOS>ATOM
      1 C         138.3753  138.6065  166.3464 C.3     1  UNL1        0.0002
      2 C         137.3263  138.1813  167.3306 C.3     1  UNL1        0.0001
      3 C         138.3635  139.1892  167.7285 C.3     1  UNL1        0.0037
      4 N         140.2129  138.3336  162.2477 N.pl3   1  UNL1       -0.2782
      5 C         140.6536  137.3946  163.3313 C.3     1  UNL1        0.0936
      6 C         140.0410  137.4855  164.6975 C.3     1  UNL1        0.0216
      7 C         138.9879  138.5155  164.9802 C.3     1  UNL1        0.0034
      8 C         138.5472  139.4545  163.8966 C.3     1  UNL1        0.0216
      9 C         139.1597  139.3635  162.5304 C.3     1  UNL1        0.0936
     10 C         142.6630  137.9697  156.7829 C.3     1  UNL1        0.0343
     11 C         142.0505  138.0606  158.1491 C.ar    1  UNL1        0.0166
     12 C         140.6216  138.4902  158.3033 C.ar    1  UNL1        0.0991
     13 N         140.0091  138.5812  159.6695 N.ar    1  UNL1       -0.2124
     14 C         140.8254  138.2426  160.8815 C.ar    1  UNL1        0.2202
     15 N         142.2543  137.8130  160.7273 N.ar    1  UNL1       -0.2124
     16 C         142.8668  137.7221  159.3611 C.ar    1  UNL1        0.0991
     17 C         138.9554  140.1076  168.7561 C.3     1  UNL1        0.0474
     18 C         140.1853  140.9028  168.4318 C.3     1  UNL1        0.2087
     19 O         140.4663  141.3048  167.0143 O.3     1  UNL1       -0.4467
     20 C         141.5329  140.5978  166.2316 C.ar    1  UNL1        0.3202
     21 N         141.7837  140.9695  164.8002 N.ar    1  UNL1       -0.1986
     22 C         142.8502  140.2625  164.0175 C.ar    1  UNL1        0.0662
     23 C         143.1009  140.6342  162.5861 C.3     1  UNL1        0.0523
     24 C         143.6659  139.1838  164.6662 C.ar    1  UNL1        0.0446
     25 C         143.4152  138.8121  166.0976 C.ar    1  UNL1        0.1549
     26 N         142.3487  139.5191  166.8803 N.ar    1  UNL1       -0.1838
     27 C         144.2310  137.7333  166.7464 C.1     1  UNL1        0.1200
     28 N         145.0468  136.6546  167.3950 N.1     1  UNL1       -0.1893
@<TRIPOS>BOND
     1    10    11    1
     2    11    12   ar
     3    12    13   ar
     4    13    14   ar
     5    14     4    1
     6     4     5    1
     7     5     6    1
     8     6     7    1
     9     1     7    1
    10     1     2    1
    11     2     3    1
    12     3    17    1
    13    17    18    1
    14    18    19    1
    15    19    20    1
    16    20    21   ar
    17    21    22   ar
    18    22    23    1
    19    22    24   ar
    20    24    25   ar
    21    25    27    1
    22    27    28    3
    23    25    26   ar
    24     7     8    1
    25     8     9    1
    26    14    15   ar
    27    15    16   ar
    28    16    11   ar
    29     9     4    1
    30     3     1    1
    31    26    20   ar
@<TRIPOS>MOLECULE
*****
 28 31 0 0 0
SMALL
GASTEIGER

@<TRIPOS>ATOM
      1 C         138.5914  139.7594  165.8934 C.3     1  UNL1        0.0002
      2 C         137.8615  138.7508  166.7299 C.3     1  UNL1        0.0001
      3 C         138.9779  139.5543  167.3281 C.3     1  UNL1        0.0037
      4 N         139.1862  141.8615  161.9593 N.pl3   1  UNL1       -0.2782
      5 C         137.8573  141.9280  162.6517 C.3     1  UNL1        0.0936
      6 C         137.6591  141.2273  163.9631 C.3     1  UNL1        0.0216
      7 C         138.7897  140.4601  164.5820 C.3     1  UNL1        0.0034
      8 C         140.1186  140.3936  163.8895 C.3     1  UNL1        0.0216
      9 C         140.3168  141.0943  162.5781 C.3     1  UNL1        0.0936
     10 C         139.9793  144.6644  156.7138 C.3     1  UNL1        0.0343
     11 C         139.7811  143.9637  158.0252 C.ar    1  UNL1        0.0166
     12 C         138.7533  142.8781  158.1475 C.ar    1  UNL1        0.0991
     13 N         138.5550  142.1774  159.4589 N.ar    1  UNL1       -0.2124
     14 C         139.3845  142.5622  160.6479 C.ar    1  UNL1        0.2202
     15 N         140.4123  143.6479  160.5255 N.ar    1  UNL1       -0.2124
     16 C         140.6106  144.3486  159.2141 C.ar    1  UNL1        0.0991
     17 C         139.8456  139.8999  168.5018 C.3     1  UNL1        0.0474
     18 C         140.5191  141.2386  168.5684 C.3     1  UNL1        0.2087
     19 O         141.6128  141.5769  167.5993 O.3     1  UNL1       -0.4467
     20 C         141.3438  142.5196  166.4639 C.ar    1  UNL1        0.3202
     21 N         140.0011  143.1760  166.3361 N.ar    1  UNL1       -0.1986
     22 C         139.7321  144.1186  165.2008 C.ar    1  UNL1        0.0662
     23 C         138.3894  144.7750  165.0730 C.3     1  UNL1        0.0523
     24 C         140.8058  144.4049  164.1932 C.ar    1  UNL1        0.0446
     25 C         142.1485  143.7484  164.3209 C.ar    1  UNL1        0.1549
     26 N         142.4175  142.8058  165.4563 N.ar    1  UNL1       -0.1838
     27 C         143.2221  144.0347  163.3133 C.1     1  UNL1        0.1200
     28 N         144.2958  144.3210  162.3057 N.1     1  UNL1       -0.1893
@<TRIPOS>BOND
     1    10    11    1
     2    11    12   ar
     3    12    13   ar
     4    13    14   ar
     5    14     4    1
     6     4     5    1
     7     5     6    1
     8     6     7    1
     9     1     7    1
    10     1     2    1
    11     2     3    1
    12     3    17    1
    13    17    18    1
    14    18    19    1
    15    19    20    1
    16    20    21   ar
    17    21    22   ar
    18    22    23    1
    19    22    24   ar
    20    24    25   ar
    21    25    27    1
    22    27    28    3
    23    25    26   ar
    24     7     8    1
    25     8     9    1
    26    14    15   ar
    27    15    16   ar
    28    16    11   ar
    29     9     4    1
    30     3     1    1
    31    26    20   ar
@<TRIPOS>MOLECULE
*****
 28 31 0 0 0
SMALL
GASTEIGER

@<TRIPOS>ATOM
      1 C         138.2951  138.9808  165.7319 C.3     1  UNL1        0.0002
      2 C         137.6337  138.3756  166.9345 C.3     1  UNL1        0.0001
      3 C         138.7867  139.3193  167.1079 C.3     1  UNL1        0.0037
      4 N         138.5891  139.4427  161.2653 N.pl3   1  UNL1       -0.2782
      5 C         137.9865  140.5379  162.0945 C.3     1  UNL1        0.0936
      6 C         137.8886  140.3839  163.5834 C.3     1  UNL1        0.0216
      7 C         138.3931  139.1348  164.2430 C.3     1  UNL1        0.0034
      8 C         138.9956  138.0397  163.4138 C.3     1  UNL1        0.0216
      9 C         139.0936  138.1937  161.9249 C.3     1  UNL1        0.0936
     10 C         138.9810  140.0586  155.3099 C.3     1  UNL1        0.0343
     11 C         138.8830  139.9047  156.7987 C.ar    1  UNL1        0.0166
     12 C         138.0096  140.8303  157.5926 C.ar    1  UNL1        0.0991
     13 N         137.9116  140.6764  159.0814 N.ar    1  UNL1       -0.2124
     14 C         138.6870  139.5967  159.7764 C.ar    1  UNL1        0.2202
     15 N         139.5604  138.6710  158.9826 N.ar    1  UNL1       -0.2124
     16 C         139.6584  138.8250  157.4937 C.ar    1  UNL1        0.0991
     17 C         139.7362  140.0596  168.0026 C.3     1  UNL1        0.0474
     18 C         140.4124  141.3054  167.5117 C.3     1  UNL1        0.2087
     19 O         139.7523  142.1548  166.4664 O.3     1  UNL1       -0.4467
     20 C         140.5888  142.9358  165.4966 C.ar    1  UNL1        0.3202
     21 N         142.0845  142.8328  165.5438 N.ar    1  UNL1       -0.1986
     22 C         142.9210  143.6137  164.5740 C.ar    1  UNL1        0.0662
     23 C         144.4167  143.5108  164.6212 C.3     1  UNL1        0.0523
     24 C         142.2618  144.4977  163.5572 C.ar    1  UNL1        0.0446
     25 C         140.7661  144.6006  163.5100 C.ar    1  UNL1        0.1549
     26 N         139.9296  143.8197  164.4797 N.ar    1  UNL1       -0.1838
     27 C         140.1068  145.4846  162.4931 C.1     1  UNL1        0.1200
     28 N         139.4476  146.3685  161.4763 N.1     1  UNL1       -0.1893
@<TRIPOS>BOND
     1    10    11    1
     2    11    12   ar
     3    12    13   ar
     4    13    14   ar
     5    14     4    1
     6     4     5    1
     7     5     6    1
     8     6     7    1
     9     1     7    1
    10     1     2    1
    11     2     3    1
    12     3    17    1
    13    17    18    1
    14    18    19    1
    15    19    20    1
    16    20    21   ar
    17    21    22   ar
    18    22    23    1
    19    22    24   ar
    20    24    25   ar
    21    25    27    1
    22    27    28    3
    23    25    26   ar
    24     7     8    1
    25     8     9    1
    26    14    15   ar
    27    15    16   ar
    28    16    11   ar
    29     9     4    1
    30     3     1    1
    31    26    20   ar
@<TRIPOS>MOLECULE
*****
 28 31 0 0 0
SMALL
GASTEIGER

@<TRIPOS>ATOM
      1 C         138.5130  139.6347  165.8324 C.3     1  UNL1        0.0002
      2 C         137.9327  138.4625  166.5667 C.3     1  UNL1        0.0001
      3 C         138.7257  139.4957  167.3107 C.3     1  UNL1        0.0037
      4 N         139.1498  141.9058  162.0001 N.pl3   1  UNL1       -0.2782
      5 C         140.1505  140.8778  162.4378 C.3     1  UNL1        0.0936
      6 C         139.9383  140.1208  163.7153 C.3     1  UNL1        0.0216
      7 C         138.7253  140.3917  164.5550 C.3     1  UNL1        0.0034
      8 C         137.7245  141.4197  164.1172 C.3     1  UNL1        0.0216
      9 C         137.9367  142.1767  162.8398 C.3     1  UNL1        0.0936
     10 C         139.9988  144.9339  156.8903 C.3     1  UNL1        0.0343
     11 C         139.7865  144.1769  158.1678 C.ar    1  UNL1        0.0166
     12 C         140.4590  144.6310  159.4293 C.ar    1  UNL1        0.0991
     13 N         140.2468  143.8740  160.7067 N.ar    1  UNL1       -0.2124
     14 C         139.3620  142.6628  160.7227 C.ar    1  UNL1        0.2202
     15 N         138.6895  142.2087  159.4611 N.ar    1  UNL1       -0.2124
     16 C         138.9017  142.9658  158.1837 C.ar    1  UNL1        0.0991
     17 C         139.3064  140.0119  168.5938 C.3     1  UNL1        0.0474
     18 C         140.3229  141.1147  168.5669 C.3     1  UNL1        0.2087
     19 O         141.6025  140.9367  167.8047 O.3     1  UNL1       -0.4467
     20 C         141.8432  141.7218  166.5494 C.ar    1  UNL1        0.3202
     21 N         140.8562  142.7651  166.1164 N.ar    1  UNL1       -0.1986
     22 C         141.0968  143.5501  164.8612 C.ar    1  UNL1        0.0662
     23 C         140.1097  144.5934  164.4282 C.3     1  UNL1        0.0523
     24 C         142.3244  143.2919  164.0388 C.ar    1  UNL1        0.0446
     25 C         143.3114  142.2487  164.4717 C.ar    1  UNL1        0.1549
     26 N         143.0708  141.4636  165.7270 N.ar    1  UNL1       -0.1838
     27 C         144.5390  141.9905  163.6493 C.1     1  UNL1        0.1200
     28 N         145.7666  141.7324  162.8269 N.1     1  UNL1       -0.1893
@<TRIPOS>BOND
     1    10    11    1
     2    11    12   ar
     3    12    13   ar
     4    13    14   ar
     5    14     4    1
     6     4     5    1
     7     5     6    1
     8     6     7    1
     9     1     7    1
    10     1     2    1
    11     2     3    1
    12     3    17    1
    13    17    18    1
    14    18    19    1
    15    19    20    1
    16    20    21   ar
    17    21    22   ar
    18    22    23    1
    19    22    24   ar
    20    24    25   ar
    21    25    27    1
    22    27    28    3
    23    25    26   ar
    24     7     8    1
    25     8     9    1
    26    14    15   ar
    27    15    16   ar
    28    16    11   ar
    29     9     4    1
    30     3     1    1
    31    26    20   ar
@<TRIPOS>MOLECULE
*****
 28 31 0 0 0
SMALL
GASTEIGER

@<TRIPOS>ATOM
      1 C         138.5030  138.7945  166.2293 C.3     1  UNL1        0.0002
      2 C         137.4918  138.4299  167.2755 C.3     1  UNL1        0.0001
      3 C         138.6262  139.3498  167.6173 C.3     1  UNL1        0.0037
      4 N         140.0409  138.4644  162.0132 N.pl3   1  UNL1       -0.2782
      5 C         140.6128  137.5916  163.0907 C.3     1  UNL1        0.0936
      6 C         140.1002  137.7016  164.4960 C.3     1  UNL1        0.0216
      7 C         139.0156  138.6845  164.8240 C.3     1  UNL1        0.0034
      8 C         138.4436  139.5573  163.7465 C.3     1  UNL1        0.0216
      9 C         138.9563  139.4473  162.3411 C.3     1  UNL1        0.0936
     10 C         142.0914  138.0242  156.3917 C.3     1  UNL1        0.0343
     11 C         141.5787  138.1343  157.7970 C.ar    1  UNL1        0.0166
     12 C         142.5275  138.0166  158.9528 C.ar    1  UNL1        0.0991
     13 N         142.0149  138.1266  160.3582 N.ar    1  UNL1       -0.2124
     14 C         140.5535  138.3543  160.6078 C.ar    1  UNL1        0.2202
     15 N         139.6047  138.4720  159.4520 N.ar    1  UNL1       -0.2124
     16 C         140.1173  138.3619  158.0466 C.ar    1  UNL1        0.0991
     17 C         139.3523  140.2015  168.6159 C.3     1  UNL1        0.0474
     18 C         140.8393  140.0756  168.7687 C.3     1  UNL1        0.2087
     19 O         141.7488  141.0549  168.0878 O.3     1  UNL1       -0.4467
     20 C         141.8995  141.0261  166.5956 C.ar    1  UNL1        0.3202
     21 N         142.8943  140.1007  165.9599 N.ar    1  UNL1       -0.1986
     22 C         143.0450  140.0719  164.4678 C.ar    1  UNL1        0.0662
     23 C         144.0398  139.1465  163.8322 C.3     1  UNL1        0.0523
     24 C         142.2009  140.9685  163.6114 C.ar    1  UNL1        0.0446
     25 C         141.2061  141.8939  164.2470 C.ar    1  UNL1        0.1549
     26 N         141.0554  141.9227  165.7391 N.ar    1  UNL1       -0.1838
     27 C         140.3620  142.7905  163.3904 C.1     1  UNL1        0.1200
     28 N         139.5179  143.6871  162.5339 N.1     1  UNL1       -0.1893
@<TRIPOS>BOND
     1    10    11    1
     2    11    12   ar
     3    12    13   ar
     4    13    14   ar
     5    14     4    1
     6     4     5    1
     7     5     6    1
     8     6     7    1
     9     1     7    1
    10     1     2    1
    11     2     3    1
    12     3    17    1
    13    17    18    1
    14    18    19    1
    15    19    20    1
    16    20    21   ar
    17    21    22   ar
    18    22    23    1
    19    22    24   ar
    20    24    25   ar
    21    25    27    1
    22    27    28    3
    23    25    26   ar
    24     7     8    1
    25     8     9    1
    26    14    15   ar
    27    15    16   ar
    28    16    11   ar
    29     9     4    1
    30     3     1    1
    31    26    20   ar
@<TRIPOS>MOLECULE
*****
 28 31 0 0 0
SMALL
GASTEIGER

@<TRIPOS>ATOM
      1 C         138.2991  139.0145  165.8941 C.3     1  UNL1        0.0002
      2 C         137.5618  138.5149  167.1010 C.3     1  UNL1        0.0001
      3 C         138.8022  139.3414  167.2689 C.3     1  UNL1        0.0037
      4 N         138.7048  139.3138  161.4225 N.pl3   1  UNL1       -0.2782
      5 C         139.2259  138.1063  162.1437 C.3     1  UNL1        0.0936
      6 C         139.0907  138.0065  163.6342 C.3     1  UNL1        0.0216
      7 C         138.4344  139.1143  164.4036 C.3     1  UNL1        0.0034
      8 C         137.9132  140.3219  163.6824 C.3     1  UNL1        0.0216
      9 C         138.0485  140.4216  162.1918 C.3     1  UNL1        0.0936
     10 C         139.2457  139.7129  155.4602 C.3     1  UNL1        0.0343
     11 C         139.1105  139.6131  156.9508 C.ar    1  UNL1        0.0166
     12 C         138.2366  140.5817  157.6911 C.ar    1  UNL1        0.0991
     13 N         138.1014  140.4820  159.1817 N.ar    1  UNL1       -0.2124
     14 C         138.8400  139.4136  159.9319 C.ar    1  UNL1        0.2202
     15 N         139.7139  138.4450  159.1916 N.ar    1  UNL1       -0.2124
     16 C         139.8491  138.5448  157.7010 C.ar    1  UNL1        0.0991
     17 C         139.8088  140.0073  168.1595 C.3     1  UNL1        0.0474
     18 C         141.1659  140.3593  167.6259 C.3     1  UNL1        0.2087
     19 O         141.8850  139.4063  166.7179 O.3     1  UNL1       -0.4467
     20 C         142.0003  139.7083  165.2531 C.ar    1  UNL1        0.3202
     21 N         142.6740  138.7306  164.3365 N.ar    1  UNL1       -0.1986
     22 C         142.7893  139.0326  162.8717 C.ar    1  UNL1        0.0662
     23 C         143.4630  138.0549  161.9551 C.3     1  UNL1        0.0523
     24 C         142.2308  140.3123  162.3236 C.ar    1  UNL1        0.0446
     25 C         141.5571  141.2900  163.2403 C.ar    1  UNL1        0.1549
     26 N         141.4418  140.9880  164.7050 N.ar    1  UNL1       -0.1838
     27 C         140.9986  142.5698  162.6921 C.1     1  UNL1        0.1200
     28 N         140.4401  143.8494  162.1440 N.1     1  UNL1       -0.1893
@<TRIPOS>BOND
     1    10    11    1
     2    11    12   ar
     3    12    13   ar
     4    13    14   ar
     5    14     4    1
     6     4     5    1
     7     5     6    1
     8     6     7    1
     9     1     7    1
    10     1     2    1
    11     2     3    1
    12     3    17    1
    13    17    18    1
    14    18    19    1
    15    19    20    1
    16    20    21   ar
    17    21    22   ar
    18    22    23    1
    19    22    24   ar
    20    24    25   ar
    21    25    27    1
    22    27    28    3
    23    25    26   ar
    24     7     8    1
    25     8     9    1
    26    14    15   ar
    27    15    16   ar
    28    16    11   ar
    29     9     4    1
    30     3     1    1
    31    26    20   ar
@<TRIPOS>MOLECULE
*****
 28 31 0 0 0
SMALL
GASTEIGER

@<TRIPOS>ATOM
      1 C         140.6227  142.4887  167.1290 C.3     1  UNL1        0.0002
      2 C         140.6430  142.8821  168.5763 C.3     1  UNL1        0.0001
      3 C         140.2998  141.4749  168.1863 C.3     1  UNL1        0.0037
      4 N         141.1466  143.5632  162.7907 N.pl3   1  UNL1       -0.2782
      5 C         140.2274  144.3714  163.6578 C.3     1  UNL1        0.0936
      6 C         140.0528  144.0132  165.1039 C.3     1  UNL1        0.0216
      7 C         140.7973  142.8469  165.6829 C.3     1  UNL1        0.0034
      8 C         141.7165  142.0387  164.8158 C.3     1  UNL1        0.0216
      9 C         141.8911  142.3969  163.3697 C.3     1  UNL1        0.0936
     10 C         141.8452  144.9960  157.0063 C.3     1  UNL1        0.0343
     11 C         141.6705  144.6378  158.4524 C.ar    1  UNL1        0.0166
     12 C         140.6209  145.3257  159.2740 C.ar    1  UNL1        0.0991
     13 N         140.4463  144.9675  160.7201 N.ar    1  UNL1       -0.2124
     14 C         141.3213  143.9214  161.3446 C.ar    1  UNL1        0.2202
     15 N         142.3709  143.2335  160.5230 N.ar    1  UNL1       -0.2124
     16 C         142.5455  143.5917  159.0769 C.ar    1  UNL1        0.0991
     17 C         139.9153  140.0772  168.5716 C.3     1  UNL1        0.0474
     18 C         138.4838  139.6394  168.4749 C.3     1  UNL1        0.2087
     19 O         138.0586  138.7005  167.3851 O.3     1  UNL1       -0.4467
     20 C         138.5614  138.8989  165.9858 C.ar    1  UNL1        0.3202
     21 N         139.5607  137.9426  165.4054 N.ar    1  UNL1       -0.1986
     22 C         140.0634  138.1409  164.0061 C.ar    1  UNL1        0.0662
     23 C         141.0628  137.1847  163.4257 C.3     1  UNL1        0.0523
     24 C         139.5668  139.2954  163.1873 C.ar    1  UNL1        0.0446
     25 C         138.5674  140.2516  163.7678 C.ar    1  UNL1        0.1549
     26 N         138.0647  140.0533  165.1670 N.ar    1  UNL1       -0.1838
     27 C         138.0708  141.4061  162.9489 C.1     1  UNL1        0.1200
     28 N         137.5741  142.5606  162.1301 N.1     1  UNL1       -0.1893
@<TRIPOS>BOND
     1    10    11    1
     2    11    12   ar
     3    12    13   ar
     4    13    14   ar
     5    14     4    1
     6     4     5    1
     7     5     6    1
     8     6     7    1
     9     1     7    1
    10     1     2    1
    11     2     3    1
    12     3    17    1
    13    17    18    1
    14    18    19    1
    15    19    20    1
    16    20    21   ar
    17    21    22   ar
    18    22    23    1
    19    22    24   ar
    20    24    25   ar
    21    25    27    1
    22    27    28    3
    23    25    26   ar
    24     7     8    1
    25     8     9    1
    26    14    15   ar
    27    15    16   ar
    28    16    11   ar
    29     9     4    1
    30     3     1    1
    31    26    20   ar
@<TRIPOS>MOLECULE
*****
 28 31 0 0 0
SMALL
GASTEIGER

@<TRIPOS>ATOM
      1 C         139.4930  140.2318  168.3339 C.3     1  UNL1        0.0002
      2 C         138.8656  140.2669  169.6959 C.3     1  UNL1        0.0001
      3 C         140.3559  140.1657  169.5590 C.3     1  UNL1        0.0037
      4 N         139.0852  140.2853  163.8527 N.pl3   1  UNL1       -0.2782
      5 C         138.8811  139.0063  164.6092 C.3     1  UNL1        0.0936
      6 C         139.0170  138.9884  166.1029 C.3     1  UNL1        0.0216
      7 C         139.3571  140.2496  166.8402 C.3     1  UNL1        0.0034
      8 C         139.5612  141.5287  166.0837 C.3     1  UNL1        0.0216
      9 C         139.4253  141.5465  164.5900 C.3     1  UNL1        0.0936
     10 C         138.5415  140.3568  157.8778 C.3     1  UNL1        0.0343
     11 C         138.6774  140.3389  159.3716 C.ar    1  UNL1        0.0166
     12 C         138.9932  139.0554  160.0806 C.ar    1  UNL1        0.0991
     13 N         139.1291  139.0375  161.5744 N.ar    1  UNL1       -0.2124
     14 C         138.9493  140.3032  162.3590 C.ar    1  UNL1        0.2202
     15 N         138.6335  141.5867  161.6499 N.ar    1  UNL1       -0.2124
     16 C         138.4976  141.6046  160.1562 C.ar    1  UNL1        0.0991
     17 C         141.7145  140.0692  170.1874 C.3     1  UNL1        0.0474
     18 C         142.9328  140.4573  169.4032 C.3     1  UNL1        0.2087
     19 O         142.8878  141.6429  168.4855 O.3     1  UNL1       -0.4467
     20 C         142.9722  141.4458  167.0008 C.ar    1  UNL1        0.3202
     21 N         142.7443  140.0857  166.4107 N.ar    1  UNL1       -0.1986
     22 C         142.8287  139.8886  164.9261 C.ar    1  UNL1        0.0662
     23 C         142.6008  138.5285  164.3359 C.3     1  UNL1        0.0523
     24 C         143.1409  141.0516  164.0317 C.ar    1  UNL1        0.0446
     25 C         143.3688  142.4116  164.6218 C.ar    1  UNL1        0.1549
     26 N         143.2844  142.6088  166.1064 N.ar    1  UNL1       -0.1838
     27 C         143.6810  143.5746  163.7273 C.1     1  UNL1        0.1200
     28 N         143.9933  144.7375  162.8329 N.1     1  UNL1       -0.1893
@<TRIPOS>BOND
     1    10    11    1
     2    11    12   ar
     3    12    13   ar
     4    13    14   ar
     5    14     4    1
     6     4     5    1
     7     5     6    1
     8     6     7    1
     9     1     7    1
    10     1     2    1
    11     2     3    1
    12     3    17    1
    13    17    18    1
    14    18    19    1
    15    19    20    1
    16    20    21   ar
    17    21    22   ar
    18    22    23    1
    19    22    24   ar
    20    24    25   ar
    21    25    27    1
    22    27    28    3
    23    25    26   ar
    24     7     8    1
    25     8     9    1
    26    14    15   ar
    27    15    16   ar
    28    16    11   ar
    29     9     4    1
    30     3     1    1
    31    26    20   ar
@<TRIPOS>MOLECULE
*****
 28 31 0 0 0
SMALL
GASTEIGER

@<TRIPOS>ATOM
      1 C         139.4459  139.4669  160.9419 C.3     1  UNL1        0.0002
      2 C         139.6209  138.4241  159.8780 C.3     1  UNL1        0.0001
      3 C         139.0708  139.7735  159.5223 C.3     1  UNL1        0.0037
      4 N         139.7924  140.7422  165.2435 N.pl3   1  UNL1       -0.2782
      5 C         138.4449  140.4444  164.6557 C.3     1  UNL1        0.0936
      6 C         138.3294  140.0193  163.2219 C.3     1  UNL1        0.0216
      7 C         139.5614  139.8920  162.3758 C.3     1  UNL1        0.0034
      8 C         140.9089  140.1898  162.9635 C.3     1  UNL1        0.0216
      9 C         141.0244  140.6149  164.3974 C.3     1  UNL1        0.0936
     10 C         140.2545  142.4425  170.9789 C.3     1  UNL1        0.0343
     11 C         140.1390  142.0174  169.5451 C.ar    1  UNL1        0.0166
     12 C         140.4971  142.9752  168.4477 C.ar    1  UNL1        0.0991
     13 N         140.3816  142.5501  167.0138 N.ar    1  UNL1       -0.2124
     14 C         139.9079  141.1672  166.6773 C.ar    1  UNL1        0.2202
     15 N         139.5498  140.2095  167.7747 N.ar    1  UNL1       -0.2124
     16 C         139.6653  140.6346  169.2086 C.ar    1  UNL1        0.0991
     17 C         138.5367  140.7295  158.4973 C.3     1  UNL1        0.0474
     18 C         138.7538  142.2046  158.6624 C.3     1  UNL1        0.2087
     19 O         138.0487  142.9484  159.7576 O.3     1  UNL1       -0.4467
     20 C         138.7928  143.3350  161.0014 C.ar    1  UNL1        0.3202
     21 N         138.0425  143.5963  162.2736 N.ar    1  UNL1       -0.1986
     22 C         138.7865  143.9830  163.5173 C.ar    1  UNL1        0.0662
     23 C         138.0362  144.2442  164.7896 C.3     1  UNL1        0.0523
     24 C         140.2810  144.1083  163.4888 C.ar    1  UNL1        0.0446
     25 C         141.0314  143.8470  162.2165 C.ar    1  UNL1        0.1549
     26 N         140.2873  143.4604  160.9728 N.ar    1  UNL1       -0.1838
     27 C         142.5259  143.9723  162.1880 C.1     1  UNL1        0.1200
     28 N         144.0203  144.0976  162.1595 N.1     1  UNL1       -0.1893
@<TRIPOS>BOND
     1    10    11    1
     2    11    12   ar
     3    12    13   ar
     4    13    14   ar
     5    14     4    1
     6     4     5    1
     7     5     6    1
     8     6     7    1
     9     1     7    1
    10     1     2    1
    11     2     3    1
    12     3    17    1
    13    17    18    1
    14    18    19    1
    15    19    20    1
    16    20    21   ar
    17    21    22   ar
    18    22    23    1
    19    22    24   ar
    20    24    25   ar
    21    25    27    1
    22    27    28    3
    23    25    26   ar
    24     7     8    1
    25     8     9    1
    26    14    15   ar
    27    15    16   ar
    28    16    11   ar
    29     9     4    1
    30     3     1    1
    31    26    20   ar
