@<TRIPOS>MOLECULE
*****
 31 35 0 0 0
SMALL
GASTEIGER

@<TRIPOS>ATOM
      1 C         140.5466  137.6283  163.9431 C.3     1  UNL1        0.0545
      2 C         139.1250  137.5153  164.4083 C.3     1  UNL1        0.0162
      3 C         138.9805  138.3300  165.6594 C.3     1  UNL1        0.0095
      4 C         138.0126  138.7637  166.7201 C.3     1  UNL1        0.0005
      5 C         138.7467  139.6483  167.6838 C.3     1  UNL1        0.0005
      6 C         140.1683  139.7613  167.2186 C.3     1  UNL1        0.0087
      7 C         140.3128  138.9466  165.9675 C.3     1  UNL1        0.0704
      8 C         141.2806  138.5129  164.9068 C.3     1  UNL1        0.0243
      9 C         141.6450  139.5631  166.2756 C.2     1  UNL1        0.2250
     10 O         142.6253  138.8345  167.1464 O.2     1  UNL1       -0.2749
     11 N         141.9971  140.9083  165.7129 N.am    1  UNL1       -0.2750
     12 C         143.3293  141.5249  166.0209 C.3     1  UNL1        0.1000
     13 C         143.6813  142.8700  165.4582 C.3     1  UNL1        0.0670
     14 C         142.7011  143.5986  164.5874 C.ar    1  UNL1        0.0584
     15 N         143.0531  144.9438  164.0247 N.ar    1  UNL1       -0.2478
     16 C         142.0729  145.6723  163.1539 C.ar    1  UNL1        0.1051
     17 C         140.7406  145.0557  162.8458 C.ar    1  UNL1        0.0534
     18 BR        139.7603  145.7843  161.9750 Br      1  UNL1       -0.0474
     19 C         140.3886  143.7106  163.4086 C.ar    1  UNL1        0.0068
     20 C         141.3688  142.9820  164.2794 C.ar    1  UNL1        0.0118
     21 C         141.0168  141.6369  164.8421 C.3     1  UNL1        0.1213
     22 N         141.1314  136.9720  162.7277 N.3     1  UNL1       -0.2975
     23 H         141.7977  136.2753  163.0611 H       1  UNL1        0.1232
     24 C         141.0777  138.4279  160.5765 C.3     1  UNL1        0.1591
     25 C         141.7929  139.2541  159.5489 C.3     1  UNL1        0.1729
     26 O         143.2768  139.4505  159.6448 O.3     1  UNL1       -0.3511
     27 C         144.0457  138.8208  160.7684 C.3     1  UNL1        0.1437
     28 C         143.3306  137.9946  161.7960 C.3     1  UNL1        0.0503
     29 C         141.8466  137.7981  161.7001 C.3     1  UNL1        0.0865
     30 C         138.6631  139.2357  161.0933 C.3     1  UNL1        0.1742
     31 O         139.5938  138.2314  160.4806 O.3     1  UNL1       -0.3496
@<TRIPOS>BOND
     1    30    31    1
     2    31    24    1
     3    24    25    1
     4    25    26    1
     5    26    27    1
     6    27    28    1
     7    28    29    1
     8    29    22    1
     9     1    22    1
    10     1     2    1
    11     3     2    1
    12     3     4    1
    13     4     5    1
    14     5     6    1
    15     6     7    1
    16     7     9    1
    17     9    10    2
    18     9    11   am
    19    11    12    1
    20    12    13    1
    21    13    14    1
    22    14    15   ar
    23    15    16   ar
    24    16    17   ar
    25    17    18    1
    26    17    19   ar
    27    19    20   ar
    28    20    21    1
    29     7     8    1
    30    29    24    1
    31     8     1    1
    32     7     3    1
    33    21    11    1
    34    20    14   ar
    35    22    23    1
@<TRIPOS>MOLECULE
*****
 31 35 0 0 0
SMALL
GASTEIGER

@<TRIPOS>ATOM
      1 C         141.1439  141.9638  161.9901 C.3     1  UNL1        0.0545
      2 C         140.8612  143.4223  161.7834 C.3     1  UNL1        0.0162
      3 C         139.5564  143.7408  162.4512 C.3     1  UNL1        0.0095
      4 C         138.5753  144.8390  162.7362 C.3     1  UNL1        0.0005
      5 C         137.4452  144.2561  163.5318 C.3     1  UNL1        0.0005
      6 C         137.7278  142.7976  163.7385 C.3     1  UNL1        0.0087
      7 C         139.0326  142.4790  163.0707 C.3     1  UNL1        0.0704
      8 C         140.0137  141.3808  162.7857 C.3     1  UNL1        0.0243
      9 C         138.5088  141.2174  163.6901 C.2     1  UNL1        0.2250
     10 O         137.6155  140.3083  162.8993 O.2     1  UNL1       -0.2749
     11 N         138.8784  140.8647  165.1005 N.am    1  UNL1       -0.2750
     12 C         138.3547  139.6030  165.7199 C.3     1  UNL1        0.1000
     13 C         138.7243  139.2504  167.1303 C.3     1  UNL1        0.0670
     14 C         139.6176  140.1595  167.9211 C.ar    1  UNL1        0.0584
     15 N         139.9872  139.8068  169.3315 N.ar    1  UNL1       -0.2478
     16 C         140.8806  140.7159  170.1224 C.ar    1  UNL1        0.1051
     17 C         141.4043  141.9776  169.5029 C.ar    1  UNL1        0.0534
     18 BR        142.2977  142.8867  170.2937 Br      1  UNL1       -0.0474
     19 C         141.0347  142.3302  168.0926 C.ar    1  UNL1        0.0068
     20 C         140.1414  141.4212  167.3017 C.ar    1  UNL1        0.0118
     21 C         139.7718  141.7738  165.8914 C.3     1  UNL1        0.1213
     22 N         142.3457  141.2189  161.4892 N.3     1  UNL1       -0.2975
     23 H         142.0087  140.3287  161.1225 H       1  UNL1        0.1232
     24 C         144.5650  141.9077  162.6511 C.3     1  UNL1        0.1591
     25 C         145.6945  141.5912  163.5860 C.3     1  UNL1        0.1729
     26 O         145.7344  140.2693  164.2937 O.3     1  UNL1       -0.3511
     27 C         144.6446  139.2638  164.0665 C.3     1  UNL1        0.1437
     28 C         143.5150  139.5803  163.1317 C.3     1  UNL1        0.0503
     29 C         143.4752  140.9023  162.4240 C.3     1  UNL1        0.0865
     30 C         144.1639  144.4742  162.6989 C.3     1  UNL1        0.1742
     31 O         144.5251  143.2297  161.9435 O.3     1  UNL1       -0.3496
@<TRIPOS>BOND
     1    30    31    1
     2    31    24    1
     3    24    25    1
     4    25    26    1
     5    26    27    1
     6    27    28    1
     7    28    29    1
     8    29    22    1
     9     1    22    1
    10     1     2    1
    11     3     2    1
    12     3     4    1
    13     4     5    1
    14     5     6    1
    15     6     7    1
    16     7     9    1
    17     9    10    2
    18     9    11   am
    19    11    12    1
    20    12    13    1
    21    13    14    1
    22    14    15   ar
    23    15    16   ar
    24    16    17   ar
    25    17    18    1
    26    17    19   ar
    27    19    20   ar
    28    20    21    1
    29     7     8    1
    30    29    24    1
    31     8     1    1
    32     7     3    1
    33    21    11    1
    34    20    14   ar
    35    22    23    1
@<TRIPOS>MOLECULE
*****
 31 35 0 0 0
SMALL
GASTEIGER

@<TRIPOS>ATOM
      1 C         139.4215  139.4404  166.4434 C.3     1  UNL1        0.0545
      2 C         139.0010  139.8202  167.8323 C.3     1  UNL1        0.0162
      3 C         140.2403  140.0648  168.6412 C.3     1  UNL1        0.0095
      4 C         140.7464  140.4506  169.9995 C.3     1  UNL1        0.0005
      5 C         142.2456  140.4604  169.9501 C.3     1  UNL1        0.0005
      6 C         142.6660  140.0806  168.5612 C.3     1  UNL1        0.0087
      7 C         141.4268  139.8361  167.7523 C.3     1  UNL1        0.0704
      8 C         140.9207  139.4502  166.3940 C.3     1  UNL1        0.0243
      9 C         142.6131  139.6074  166.8634 C.2     1  UNL1        0.2250
     10 O         143.5585  138.4786  167.1499 O.2     1  UNL1       -0.2749
     11 N         142.8541  140.5075  165.6879 N.am    1  UNL1       -0.2750
     12 C         144.0405  140.2788  164.7989 C.3     1  UNL1        0.1000
     13 C         144.2815  141.1789  163.6235 C.3     1  UNL1        0.0670
     14 C         143.3361  142.3076  163.3369 C.ar    1  UNL1        0.0584
     15 N         143.5771  143.2077  162.1614 N.ar    1  UNL1       -0.2478
     16 C         142.6317  144.3365  161.8749 C.ar    1  UNL1        0.1051
     17 C         141.4453  144.5652  162.7638 C.ar    1  UNL1        0.0534
     18 BR        140.4999  145.6939  162.4773 Br      1  UNL1       -0.0474
     19 C         141.2043  143.6651  163.9393 C.ar    1  UNL1        0.0068
     20 C         142.1497  142.5363  164.2259 C.ar    1  UNL1        0.0118
     21 C         141.9087  141.6363  165.4013 C.3     1  UNL1        0.1213
     22 N         138.5039  139.1090  165.3040 N.3     1  UNL1       -0.2975
     23 H         138.9278  138.3288  164.8019 H       1  UNL1        0.1232
     24 C         138.0105  139.7675  162.8397 C.3     1  UNL1        0.1591
     25 C         137.6786  140.8122  161.8158 C.3     1  UNL1        0.1729
     26 O         137.5082  142.2431  162.2322 O.3     1  UNL1       -0.3511
     27 C         137.6698  142.6294  163.6727 C.3     1  UNL1        0.1437
     28 C         138.0017  141.5847  164.6966 C.3     1  UNL1        0.0503
     29 C         138.1720  140.1537  164.2801 C.3     1  UNL1        0.0865
     30 C         139.2800  137.9570  161.4757 C.3     1  UNL1        0.1742
     31 O         138.1808  138.3366  162.4233 O.3     1  UNL1       -0.3496
@<TRIPOS>BOND
     1    30    31    1
     2    31    24    1
     3    24    25    1
     4    25    26    1
     5    26    27    1
     6    27    28    1
     7    28    29    1
     8    29    22    1
     9     1    22    1
    10     1     2    1
    11     3     2    1
    12     3     4    1
    13     4     5    1
    14     5     6    1
    15     6     7    1
    16     7     9    1
    17     9    10    2
    18     9    11   am
    19    11    12    1
    20    12    13    1
    21    13    14    1
    22    14    15   ar
    23    15    16   ar
    24    16    17   ar
    25    17    18    1
    26    17    19   ar
    27    19    20   ar
    28    20    21    1
    29     7     8    1
    30    29    24    1
    31     8     1    1
    32     7     3    1
    33    21    11    1
    34    20    14   ar
    35    22    23    1
@<TRIPOS>MOLECULE
*****
 31 35 0 0 0
SMALL
GASTEIGER

@<TRIPOS>ATOM
      1 C         140.4645  137.7614  163.9463 C.3     1  UNL1        0.0545
      2 C         139.0514  137.6192  164.4288 C.3     1  UNL1        0.0162
      3 C         138.9202  138.3857  165.7115 C.3     1  UNL1        0.0095
      4 C         137.9658  138.7716  166.8025 C.3     1  UNL1        0.0005
      5 C         138.7081  139.6258  167.7870 C.3     1  UNL1        0.0005
      6 C         140.1212  139.7679  167.3046 C.3     1  UNL1        0.0087
      7 C         140.2524  139.0015  166.0219 C.3     1  UNL1        0.0704
      8 C         141.2068  138.6156  164.9309 C.3     1  UNL1        0.0243
      9 C         141.5844  139.6173  166.3321 C.2     1  UNL1        0.2250
     10 O         142.5574  138.8943  167.2157 O.2     1  UNL1       -0.2749
     11 N         141.9437  140.9561  165.7588 N.am    1  UNL1       -0.2750
     12 C         143.2758  141.5719  166.0690 C.3     1  UNL1        0.1000
     13 C         143.6349  142.9106  165.4957 C.3     1  UNL1        0.0670
     14 C         142.6620  143.6335  164.6121 C.ar    1  UNL1        0.0584
     15 N         143.0212  144.9723  164.0387 N.ar    1  UNL1       -0.2478
     16 C         142.0483  145.6953  163.1551 C.ar    1  UNL1        0.1051
     17 C         140.7161  145.0794  162.8449 C.ar    1  UNL1        0.0534
     18 BR        139.7432  145.8024  161.9613 Br      1  UNL1       -0.0474
     19 C         140.3570  143.7407  163.4182 C.ar    1  UNL1        0.0068
     20 C         141.3299  143.0178  164.3018 C.ar    1  UNL1        0.0118
     21 C         140.9707  141.6790  164.8752 C.3     1  UNL1        0.1213
     22 N         141.0353  137.1556  162.6984 N.3     1  UNL1       -0.2975
     23 H         141.9209  136.7223  162.9598 H       1  UNL1        0.1232
     24 C         142.6804  138.5980  161.2974 C.3     1  UNL1        0.1591
     25 C         142.9570  139.4621  160.1029 C.3     1  UNL1        0.1729
     26 O         141.8651  139.7480  159.1150 O.3     1  UNL1       -0.3511
     27 C         140.4965  139.1697  159.3215 C.3     1  UNL1        0.1437
     28 C         140.2199  138.3055  160.5160 C.3     1  UNL1        0.0503
     29 C         141.3119  138.0197  161.5039 C.3     1  UNL1        0.0865
     30 C         144.3429  139.4239  163.1151 C.3     1  UNL1        0.1742
     31 O         143.7723  138.3121  162.2853 O.3     1  UNL1       -0.3496
@<TRIPOS>BOND
     1    30    31    1
     2    31    24    1
     3    24    25    1
     4    25    26    1
     5    26    27    1
     6    27    28    1
     7    28    29    1
     8    29    22    1
     9     1    22    1
    10     1     2    1
    11     3     2    1
    12     3     4    1
    13     4     5    1
    14     5     6    1
    15     6     7    1
    16     7     9    1
    17     9    10    2
    18     9    11   am
    19    11    12    1
    20    12    13    1
    21    13    14    1
    22    14    15   ar
    23    15    16   ar
    24    16    17   ar
    25    17    18    1
    26    17    19   ar
    27    19    20   ar
    28    20    21    1
    29     7     8    1
    30    29    24    1
    31     8     1    1
    32     7     3    1
    33    21    11    1
    34    20    14   ar
    35    22    23    1
@<TRIPOS>MOLECULE
*****
 31 35 0 0 0
SMALL
GASTEIGER

@<TRIPOS>ATOM
      1 C         139.2263  138.3325  165.0614 C.3     1  UNL1        0.0545
      2 C         138.3725  138.6912  166.2414 C.3     1  UNL1        0.0162
      3 C         139.2235  139.4509  167.2154 C.3     1  UNL1        0.0095
      4 C         139.2218  140.1421  168.5466 C.3     1  UNL1        0.0005
      5 C         140.6004  140.6801  168.7914 C.3     1  UNL1        0.0005
      6 C         141.4542  140.3214  167.6114 C.3     1  UNL1        0.0087
      7 C         140.6033  139.5617  166.6374 C.3     1  UNL1        0.0704
      8 C         140.6050  138.8705  165.3061 C.3     1  UNL1        0.0243
      9 C         141.9829  139.6725  166.0594 C.2     1  UNL1        0.2250
     10 O         143.0447  138.6914  166.4594 O.2     1  UNL1       -0.2749
     11 N         142.3009  140.7644  165.0812 N.am    1  UNL1       -0.2750
     12 C         143.6806  140.8752  164.5032 C.3     1  UNL1        0.1000
     13 C         143.9985  141.9671  163.5251 C.3     1  UNL1        0.0670
     14 C         142.9366  142.9482  163.1250 C.ar    1  UNL1        0.0584
     15 N         143.2546  144.0401  162.1469 N.ar    1  UNL1       -0.2478
     16 C         142.1928  145.0212  161.7468 C.ar    1  UNL1        0.1051
     17 C         140.8130  144.9104  162.3249 C.ar    1  UNL1        0.0534
     18 BR        139.7512  145.8915  161.9248 Br      1  UNL1       -0.0474
     19 C         140.4952  143.8185  163.3030 C.ar    1  UNL1        0.0068
     20 C         141.5570  142.8374  163.7031 C.ar    1  UNL1        0.0118
     21 C         141.2391  141.7455  164.6811 C.3     1  UNL1        0.1213
     22 N         138.7798  137.5697  163.8494 N.3     1  UNL1       -0.2975
     23 H         139.3453  136.7217  163.8103 H       1  UNL1        0.1232
     24 C         140.1016  138.0603  161.6671 C.3     1  UNL1        0.1591
     25 C         140.1794  138.6955  160.3105 C.3     1  UNL1        0.1729
     26 O         139.0132  139.4753  159.7794 O.3     1  UNL1       -0.3511
     27 C         137.7692  139.6199  160.6051 C.3     1  UNL1        0.1437
     28 C         137.6914  138.9847  161.9617 C.3     1  UNL1        0.0503
     29 C         138.8576  138.2049  162.4927 C.3     1  UNL1        0.0865
     30 C         142.5725  137.9709  162.4652 C.3     1  UNL1        0.1742
     31 O         141.2677  137.2806  162.1982 O.3     1  UNL1       -0.3496
@<TRIPOS>BOND
     1    30    31    1
     2    31    24    1
     3    24    25    1
     4    25    26    1
     5    26    27    1
     6    27    28    1
     7    28    29    1
     8    29    22    1
     9     1    22    1
    10     1     2    1
    11     3     2    1
    12     3     4    1
    13     4     5    1
    14     5     6    1
    15     6     7    1
    16     7     9    1
    17     9    10    2
    18     9    11   am
    19    11    12    1
    20    12    13    1
    21    13    14    1
    22    14    15   ar
    23    15    16   ar
    24    16    17   ar
    25    17    18    1
    26    17    19   ar
    27    19    20   ar
    28    20    21    1
    29     7     8    1
    30    29    24    1
    31     8     1    1
    32     7     3    1
    33    21    11    1
    34    20    14   ar
    35    22    23    1
@<TRIPOS>MOLECULE
*****
 31 35 0 0 0
SMALL
GASTEIGER

@<TRIPOS>ATOM
      1 C         142.5215  143.5479  163.2792 C.3     1  UNL1        0.0545
      2 C         144.0093  143.6474  163.4422 C.3     1  UNL1        0.0162
      3 C         144.5436  142.2654  163.6756 C.3     1  UNL1        0.0095
      4 C         145.7932  141.4727  163.9206 C.3     1  UNL1        0.0005
      5 C         145.4080  140.0291  164.0533 C.3     1  UNL1        0.0005
      6 C         143.9202  139.9296  163.8903 C.3     1  UNL1        0.0087
      7 C         143.3860  141.3116  163.6569 C.3     1  UNL1        0.0704
      8 C         142.1363  142.1043  163.4119 C.3     1  UNL1        0.0243
      9 C         142.2284  140.3579  163.6381 C.2     1  UNL1        0.2250
     10 O         141.9202  139.5767  162.3952 O.2     1  UNL1       -0.2749
     11 N         141.3788  140.1854  164.8623 N.am    1  UNL1       -0.2750
     12 C         140.2212  139.2317  164.8436 C.3     1  UNL1        0.1000
     13 C         139.3718  139.0592  166.0678 C.3     1  UNL1        0.0670
     14 C         139.6799  139.8404  167.3107 C.ar    1  UNL1        0.0584
     15 N         138.8304  139.6679  168.5349 N.ar    1  UNL1       -0.2478
     16 C         139.1385  140.4491  169.7778 C.ar    1  UNL1        0.1051
     17 C         140.2962  141.4028  169.7965 C.ar    1  UNL1        0.0534
     18 BR        140.6043  142.1840  171.0393 Br      1  UNL1       -0.0474
     19 C         141.1456  141.5753  168.5723 C.ar    1  UNL1        0.0068
     20 C         140.8375  140.7941  167.3294 C.ar    1  UNL1        0.0118
     21 C         141.6870  140.9666  166.1052 C.3     1  UNL1        0.1213
     22 N         141.5836  144.6912  163.0277 N.3     1  UNL1       -0.2975
     23 H         141.9942  145.5122  163.4725 H       1  UNL1        0.1232
     24 C         139.0539  144.4186  162.5022 C.3     1  UNL1        0.1591
     25 C         137.6311  144.3385  162.9705 C.3     1  UNL1        0.1729
     26 O         137.3153  144.4507  164.4326 O.3     1  UNL1       -0.3511
     27 C         138.4223  144.6431  165.4264 C.3     1  UNL1        0.1437
     28 C         139.8451  144.7232  164.9581 C.3     1  UNL1        0.0503
     29 C         140.1609  144.6110  163.4960 C.3     1  UNL1        0.0865
     30 C         139.5502  142.9556  160.4134 C.3     1  UNL1        0.1742
     31 O         139.3697  144.3064  161.0402 O.3     1  UNL1       -0.3496
@<TRIPOS>BOND
     1    30    31    1
     2    31    24    1
     3    24    25    1
     4    25    26    1
     5    26    27    1
     6    27    28    1
     7    28    29    1
     8    29    22    1
     9     1    22    1
    10     1     2    1
    11     3     2    1
    12     3     4    1
    13     4     5    1
    14     5     6    1
    15     6     7    1
    16     7     9    1
    17     9    10    2
    18     9    11   am
    19    11    12    1
    20    12    13    1
    21    13    14    1
    22    14    15   ar
    23    15    16   ar
    24    16    17   ar
    25    17    18    1
    26    17    19   ar
    27    19    20   ar
    28    20    21    1
    29     7     8    1
    30    29    24    1
    31     8     1    1
    32     7     3    1
    33    21    11    1
    34    20    14   ar
    35    22    23    1
@<TRIPOS>MOLECULE
*****
 31 35 0 0 0
SMALL
GASTEIGER

@<TRIPOS>ATOM
      1 C         140.3354  141.7282  161.2718 C.3     1  UNL1        0.0545
      2 C         138.8999  141.3196  161.1222 C.3     1  UNL1        0.0162
      3 C         138.7595  139.9202  161.6436 C.3     1  UNL1        0.0095
      4 C         137.7855  138.8028  161.8734 C.3     1  UNL1        0.0005
      5 C         138.5323  137.6559  162.4874 C.3     1  UNL1        0.0005
      6 C         139.9678  138.0644  162.6370 C.3     1  UNL1        0.0087
      7 C         140.1082  139.4638  162.1156 C.3     1  UNL1        0.0704
      8 C         141.0822  140.5812  161.8857 C.3     1  UNL1        0.0243
      9 C         141.4570  139.0075  162.5874 C.2     1  UNL1        0.2250
     10 O         142.4634  138.4958  161.6000 O.2     1  UNL1       -0.2749
     11 N         141.7992  139.0630  164.0469 N.am    1  UNL1       -0.2750
     12 C         143.1479  138.6067  164.5188 C.3     1  UNL1        0.1000
     13 C         143.4902  138.6621  165.9781 C.3     1  UNL1        0.0670
     14 C         142.4837  139.1739  166.9656 C.ar    1  UNL1        0.0584
     15 N         142.8259  139.2293  168.4250 N.ar    1  UNL1       -0.2478
     16 C         141.8194  139.7411  169.4125 C.ar    1  UNL1        0.1051
     17 C         140.4707  140.1974  168.9405 C.ar    1  UNL1        0.0534
     18 BR        139.4642  140.7091  169.9280 Br      1  UNL1       -0.0474
     19 C         140.1285  140.1419  167.4812 C.ar    1  UNL1        0.0068
     20 C         141.1349  139.6302  166.4937 C.ar    1  UNL1        0.0118
     21 C         140.7927  139.5747  165.0343 C.3     1  UNL1        0.1213
     22 N         140.9213  143.0514  160.8769 N.3     1  UNL1       -0.2975
     23 H         141.4563  142.8934  160.0229 H       1  UNL1        0.1232
     24 C         141.2437  144.7315  162.8321 C.3     1  UNL1        0.1591
     25 C         142.1467  145.4647  163.7793 C.3     1  UNL1        0.1729
     26 O         143.6300  145.2508  163.7185 O.3     1  UNL1       -0.3511
     27 C         144.2106  144.3037  162.7105 C.3     1  UNL1        0.1437
     28 C         143.3077  143.5706  161.7633 C.3     1  UNL1        0.0503
     29 C         141.8242  143.7845  161.8241 C.3     1  UNL1        0.0865
     30 C         138.9438  144.2452  163.9384 C.3     1  UNL1        0.1742
     31 O         139.7603  144.9455  162.8929 O.3     1  UNL1       -0.3496
@<TRIPOS>BOND
     1    30    31    1
     2    31    24    1
     3    24    25    1
     4    25    26    1
     5    26    27    1
     6    27    28    1
     7    28    29    1
     8    29    22    1
     9     1    22    1
    10     1     2    1
    11     3     2    1
    12     3     4    1
    13     4     5    1
    14     5     6    1
    15     6     7    1
    16     7     9    1
    17     9    10    2
    18     9    11   am
    19    11    12    1
    20    12    13    1
    21    13    14    1
    22    14    15   ar
    23    15    16   ar
    24    16    17   ar
    25    17    18    1
    26    17    19   ar
    27    19    20   ar
    28    20    21    1
    29     7     8    1
    30    29    24    1
    31     8     1    1
    32     7     3    1
    33    21    11    1
    34    20    14   ar
    35    22    23    1
@<TRIPOS>MOLECULE
*****
 31 35 0 0 0
SMALL
GASTEIGER

@<TRIPOS>ATOM
      1 C         141.9486  140.4309  166.6079 C.3     1  UNL1        0.0545
      2 C         142.5858  139.1245  166.2376 C.3     1  UNL1        0.0162
      3 C         141.6669  138.4130  165.2892 C.3     1  UNL1        0.0095
      4 C         141.4929  137.1658  164.4742 C.3     1  UNL1        0.0005
      5 C         140.1801  137.2617  163.7547 C.3     1  UNL1        0.0005
      6 C         139.5429  138.5681  164.1251 C.3     1  UNL1        0.0087
      7 C         140.4618  139.2796  165.0734 C.3     1  UNL1        0.0704
      8 C         140.6358  140.5268  165.8885 C.3     1  UNL1        0.0243
      9 C         139.2567  140.1463  164.8577 C.2     1  UNL1        0.2250
     10 O         138.0691  140.0190  165.7652 O.2     1  UNL1       -0.2749
     11 N         139.2391  141.1403  163.7344 N.am    1  UNL1       -0.2750
     12 C         138.0340  142.0070  163.5187 C.3     1  UNL1        0.1000
     13 C         138.0164  143.0010  162.3955 C.3     1  UNL1        0.0670
     14 C         139.2039  143.1283  161.4880 C.ar    1  UNL1        0.0584
     15 N         139.1863  144.1223  160.3647 N.ar    1  UNL1       -0.2478
     16 C         140.3739  144.2496  159.4573 C.ar    1  UNL1        0.1051
     17 C         141.5790  143.3829  159.6730 C.ar    1  UNL1        0.0534
     18 BR        142.7666  143.5102  158.7655 Br      1  UNL1       -0.0474
     19 C         141.5966  142.3889  160.7962 C.ar    1  UNL1        0.0068
     20 C         140.4090  142.2616  161.7037 C.ar    1  UNL1        0.0118
     21 C         140.4266  141.2676  162.8270 C.3     1  UNL1        0.1213
     22 N         142.5232  141.4607  167.5350 N.3     1  UNL1       -0.2975
     23 H         143.4583  141.1408  167.7872 H       1  UNL1        0.1232
     24 C         142.1488  141.0384  170.0711 C.3     1  UNL1        0.1591
     25 C         141.4441  141.3698  171.3531 C.3     1  UNL1        0.1729
     26 O         140.4091  142.4551  171.3811 O.3     1  UNL1       -0.3511
     27 C         140.0787  143.2090  170.1270 C.3     1  UNL1        0.1437
     28 C         140.7834  142.8775  168.8450 C.3     1  UNL1        0.0503
     29 C         141.8185  141.7922  168.8170 C.3     1  UNL1        0.0865
     30 C         142.7611  138.5143  170.0040 C.3     1  UNL1        0.1742
     31 O         143.1838  139.9531  170.0431 O.3     1  UNL1       -0.3496
@<TRIPOS>BOND
     1    30    31    1
     2    31    24    1
     3    24    25    1
     4    25    26    1
     5    26    27    1
     6    27    28    1
     7    28    29    1
     8    29    22    1
     9     1    22    1
    10     1     2    1
    11     3     2    1
    12     3     4    1
    13     4     5    1
    14     5     6    1
    15     6     7    1
    16     7     9    1
    17     9    10    2
    18     9    11   am
    19    11    12    1
    20    12    13    1
    21    13    14    1
    22    14    15   ar
    23    15    16   ar
    24    16    17   ar
    25    17    18    1
    26    17    19   ar
    27    19    20   ar
    28    20    21    1
    29     7     8    1
    30    29    24    1
    31     8     1    1
    32     7     3    1
    33    21    11    1
    34    20    14   ar
    35    22    23    1
@<TRIPOS>MOLECULE
*****
 31 35 0 0 0
SMALL
GASTEIGER

@<TRIPOS>ATOM
      1 C         142.0226  138.4857  164.1574 C.3     1  UNL1        0.0545
      2 C         141.0128  137.3773  164.1961 C.3     1  UNL1        0.0162
      3 C         139.8558  137.8333  165.0348 C.3     1  UNL1        0.0095
      4 C         138.5167  137.4302  165.5771 C.3     1  UNL1        0.0005
      5 C         137.9839  138.5714  166.3919 C.3     1  UNL1        0.0005
      6 C         138.9937  139.6798  166.3532 C.3     1  UNL1        0.0087
      7 C         140.1507  139.2237  165.5145 C.3     1  UNL1        0.0704
      8 C         141.4898  139.6269  164.9722 C.3     1  UNL1        0.0243
      9 C         140.4455  140.6140  165.9941 C.2     1  UNL1        0.2250
     10 O         140.7387  140.8607  167.4444 O.2     1  UNL1       -0.2749
     11 N         140.4472  141.7577  165.0235 N.am    1  UNL1       -0.2750
     12 C         140.7420  143.1480  165.5031 C.3     1  UNL1        0.1000
     13 C         140.7437  144.2916  164.5326 C.3     1  UNL1        0.0670
     14 C         140.4504  144.0449  163.0823 C.ar    1  UNL1        0.0584
     15 N         140.4521  145.1886  162.1117 N.ar    1  UNL1       -0.2478
     16 C         140.1588  144.9420  160.6615 C.ar    1  UNL1        0.1051
     17 C         139.8640  143.5516  160.1819 C.ar    1  UNL1        0.0534
     18 BR        139.5708  143.3049  158.7316 Br      1  UNL1       -0.0474
     19 C         139.8623  142.4080  161.1525 C.ar    1  UNL1        0.0068
     20 C         140.1556  142.6546  162.6027 C.ar    1  UNL1        0.0118
     21 C         140.1539  141.5110  163.5733 C.3     1  UNL1        0.1213
     22 N         143.3350  138.4579  163.4313 N.3     1  UNL1       -0.2975
     23 H         143.9764  137.9086  164.0034 H       1  UNL1        0.1232
     24 C         143.6510  140.5176  161.8796 C.3     1  UNL1        0.1591
     25 C         144.3541  141.8014  161.5519 C.3     1  UNL1        0.1729
     26 O         145.4443  142.3094  162.4481 O.3     1  UNL1       -0.3511
     27 C         145.8315  141.5336  163.6722 C.3     1  UNL1        0.1437
     28 C         145.1284  140.2497  163.9999 C.3     1  UNL1        0.0503
     29 C         144.0381  139.7417  163.1036 C.3     1  UNL1        0.0865
     30 C         142.6041  140.2980  159.5119 C.3     1  UNL1        0.1742
     31 O         142.5607  140.0096  160.9834 O.3     1  UNL1       -0.3496
@<TRIPOS>BOND
     1    30    31    1
     2    31    24    1
     3    24    25    1
     4    25    26    1
     5    26    27    1
     6    27    28    1
     7    28    29    1
     8    29    22    1
     9     1    22    1
    10     1     2    1
    11     3     2    1
    12     3     4    1
    13     4     5    1
    14     5     6    1
    15     6     7    1
    16     7     9    1
    17     9    10    2
    18     9    11   am
    19    11    12    1
    20    12    13    1
    21    13    14    1
    22    14    15   ar
    23    15    16   ar
    24    16    17   ar
    25    17    18    1
    26    17    19   ar
    27    19    20   ar
    28    20    21    1
    29     7     8    1
    30    29    24    1
    31     8     1    1
    32     7     3    1
    33    21    11    1
    34    20    14   ar
    35    22    23    1
