@<TRIPOS>MOLECULE
*****
 31 36 0 0 0
SMALL
GASTEIGER

@<TRIPOS>ATOM
      1 C         140.7887  143.3951  160.0466 C.3     1  UNL1        0.0723
      2 N         141.0877  142.7211  161.3529 N.3     1  UNL1       -0.2698
      3 C         140.7936  143.4246  162.6444 C.3     1  UNL1        0.0938
      4 C         141.0926  142.7506  163.9507 C.3     1  UNL1        0.1081
      5 N         141.6858  141.3729  163.9653 N.pl3   1  UNL1       -0.3046
      6 C         141.9800  140.6693  162.6736 C.3     1  UNL1        0.1081
      7 C         141.6810  141.3433  161.3674 C.3     1  UNL1        0.0938
      8 C         141.9848  140.6989  165.2716 C.ar    1  UNL1        0.0484
      9 C         142.7836  139.4296  165.2949 C.ar    1  UNL1        0.0146
     10 C         143.0827  138.7555  166.6012 C.ar    1  UNL1        0.0018
     11 C         142.5829  139.3508  167.8840 C.ar    1  UNL1        0.0066
     12 C         141.7840  140.6203  167.8606 C.ar    1  UNL1        0.0307
     13 S         141.1634  141.4359  168.9559 S.2     1  UNL1       -0.0864
     14 C         140.4807  142.6140  168.3265 C.ar    1  UNL1        0.0355
     15 C         140.6795  142.5264  166.8423 C.ar    1  UNL1        0.0087
     16 C         141.4850  141.2943  166.5544 C.ar    1  UNL1        0.0198
     17 C         139.8748  142.7377  159.0553 C.3     1  UNL1        0.0191
     18 C         138.4768  142.3683  159.4543 C.3     1  UNL1        0.0234
     19 C         138.1388  140.9411  159.7688 C.3     1  UNL1        0.1009
     20 O         137.3576  142.5782  162.4815 O.2     1  UNL1       -0.2745
     21 C         137.9091  141.1845  162.4207 C.2     1  UNL1        0.2316
     22 C         138.1982  140.2987  163.5962 C.3     1  UNL1        0.0900
     23 C         138.7359  138.9987  163.0757 C.3     1  UNL1        0.0900
     24 C         138.7792  139.0812  161.5786 C.2     1  UNL1        0.2316
     25 O         139.2507  138.0020  160.6494 O.2     1  UNL1       -0.2745
     26 N         138.2681  140.4320  161.1738 N.am    1  UNL1       -0.2299
     27 C         139.0251  138.1129  164.2512 C.3     1  UNL1        0.0311
     28 C         138.9818  138.0304  165.7483 C.2     1  UNL1       -0.0305
     29 C         138.4441  139.3304  166.2687 C.2     1  UNL1       -0.0305
     30 C         138.1549  140.2163  165.0933 C.3     1  UNL1        0.0311
     31 C         138.5140  139.4638  163.8464 C.3     1  UNL1        0.0096
@<TRIPOS>BOND
     1    20    21    2
     2    22    21    1
     3    22    23    1
     4    23    24    1
     5    24    25    2
     6    24    26   am
     7    26    19    1
     8    19    18    1
     9    18    17    1
    10    17     1    1
    11     1     2    1
    12     2     3    1
    13     3     4    1
    14     4     5    1
    15     5     8    1
    16     8     9   ar
    17     9    10   ar
    18    10    11   ar
    19    11    12   ar
    20    12    13   ar
    21    13    14   ar
    22    14    15   ar
    23    15    16   ar
    24     5     6    1
    25     6     7    1
    26    23    27    1
    27    27    28    1
    28    28    29    2
    29    30    29    1
    30    30    31    1
    31    26    21   am
    32     7     2    1
    33    31    27    1
    34    30    22    1
    35    16     8   ar
    36    16    12   ar
@<TRIPOS>MOLECULE
*****
 31 36 0 0 0
SMALL
GASTEIGER

@<TRIPOS>ATOM
      1 C         140.8698  143.2054  159.9743 C.3     1  UNL1        0.0723
      2 N         141.1403  142.5845  161.3126 N.3     1  UNL1       -0.2698
      3 C         141.7672  141.2244  161.3955 C.3     1  UNL1        0.0938
      4 C         142.0377  140.6035  162.7340 C.3     1  UNL1        0.1081
      5 N         141.6812  141.3427  163.9895 N.pl3   1  UNL1       -0.3046
      6 C         141.0543  142.7029  163.9066 C.3     1  UNL1        0.1081
      7 C         140.7838  143.3239  162.5683 C.3     1  UNL1        0.0938
      8 C         141.9517  140.7218  165.3279 C.ar    1  UNL1        0.0484
      9 C         142.7250  139.4397  165.4173 C.ar    1  UNL1        0.0146
     10 C         142.9956  138.8187  166.7557 C.ar    1  UNL1        0.0018
     11 C         142.4928  139.4799  168.0046 C.ar    1  UNL1        0.0066
     12 C         141.7194  140.7621  167.9152 C.ar    1  UNL1        0.0307
     13 S         141.1023  141.6373  168.9655 S.2     1  UNL1       -0.0864
     14 C         140.4504  142.7992  168.2762 C.ar    1  UNL1        0.0355
     15 C         140.6646  142.6420  166.8000 C.ar    1  UNL1        0.0087
     16 C         141.4489  141.3831  166.5769 C.ar    1  UNL1        0.0198
     17 C         139.5862  142.9106  159.2563 C.3     1  UNL1        0.0191
     18 C         139.2266  141.4954  158.9132 C.3     1  UNL1        0.0234
     19 C         138.0783  140.8241  159.6066 C.3     1  UNL1        0.1009
     20 O         139.1804  137.9086  160.5734 O.2     1  UNL1       -0.2745
     21 C         138.7318  139.0236  161.4710 C.2     1  UNL1        0.2316
     22 C         138.7112  138.9942  162.9705 C.3     1  UNL1        0.0900
     23 C         138.1917  140.3162  163.4529 C.3     1  UNL1        0.0900
     24 C         137.8915  141.1625  162.2515 C.2     1  UNL1        0.2316
     25 O         137.3520  142.5621  162.2715 O.2     1  UNL1       -0.2745
     26 N         138.2252  140.3637  161.0266 N.am    1  UNL1       -0.2299
     27 C         138.1710  140.2867  164.9525 C.3     1  UNL1        0.0311
     28 C         138.4713  139.4403  166.1540 C.2     1  UNL1       -0.0305
     29 C         138.9907  138.1184  165.6715 C.2     1  UNL1       -0.0305
     30 C         139.0114  138.1478  164.1720 C.3     1  UNL1        0.0311
     31 C         138.5048  139.4879  163.7276 C.3     1  UNL1        0.0096
@<TRIPOS>BOND
     1    20    21    2
     2    22    21    1
     3    22    23    1
     4    23    24    1
     5    24    25    2
     6    24    26   am
     7    26    19    1
     8    19    18    1
     9    18    17    1
    10    17     1    1
    11     1     2    1
    12     2     3    1
    13     3     4    1
    14     4     5    1
    15     5     8    1
    16     8     9   ar
    17     9    10   ar
    18    10    11   ar
    19    11    12   ar
    20    12    13   ar
    21    13    14   ar
    22    14    15   ar
    23    15    16   ar
    24     5     6    1
    25     6     7    1
    26    23    27    1
    27    27    28    1
    28    28    29    2
    29    30    29    1
    30    30    31    1
    31    26    21   am
    32     7     2    1
    33    31    27    1
    34    30    22    1
    35    16     8   ar
    36    16    12   ar
@<TRIPOS>MOLECULE
*****
 31 36 0 0 0
SMALL
GASTEIGER

@<TRIPOS>ATOM
      1 C         140.2565  145.7796  162.4902 C.3     1  UNL1        0.0723
      2 N         140.5653  144.7717  163.5573 N.3     1  UNL1       -0.2698
      3 C         139.4552  144.1818  164.3756 C.3     1  UNL1        0.0938
      4 C         139.7641  143.1738  165.4427 C.3     1  UNL1        0.1081
      5 N         141.1830  142.7557  165.6914 N.pl3   1  UNL1       -0.3046
      6 C         142.2931  143.3456  164.8731 C.3     1  UNL1        0.1081
      7 C         141.9843  144.3536  163.8060 C.3     1  UNL1        0.0938
      8 C         141.4918  141.7478  166.7585 C.ar    1  UNL1        0.0484
      9 C         142.1685  140.4583  166.3989 C.ar    1  UNL1        0.0146
     10 C         142.4773  139.4503  167.4660 C.ar    1  UNL1        0.0018
     11 C         142.1094  139.7318  168.8926 C.ar    1  UNL1        0.0066
     12 C         141.4327  141.0213  169.2522 C.ar    1  UNL1        0.0307
     13 S         140.9545  141.5724  170.5628 S.2     1  UNL1       -0.0864
     14 C         140.3502  142.9210  170.3057 C.ar    1  UNL1        0.0355
     15 C         140.4549  143.2034  168.8362 C.ar    1  UNL1        0.0087
     16 C         141.1239  142.0293  168.1852 C.ar    1  UNL1        0.0198
     17 C         139.9913  145.3269  161.0850 C.3     1  UNL1        0.0191
     18 C         140.2385  143.8989  160.6978 C.3     1  UNL1        0.0234
     19 C         139.1449  142.8825  160.8424 C.3     1  UNL1        0.1009
     20 O         141.8347  141.0471  161.0559 O.2     1  UNL1       -0.2745
     21 C         140.5718  140.8555  161.8424 C.2     1  UNL1        0.2316
     22 C         140.3237  139.7866  162.8651 C.3     1  UNL1        0.0900
     23 C         138.9338  139.9697  163.3990 C.3     1  UNL1        0.0900
     24 C         138.3232  141.1518  162.7063 C.2     1  UNL1        0.2316
     25 O         136.9425  141.6915  162.9354 O.2     1  UNL1       -0.2745
     26 N         139.3354  141.6992  161.7443 N.am    1  UNL1       -0.2299
     27 C         138.6857  138.9008  164.4217 C.3     1  UNL1        0.0311
     28 C         139.2964  137.7188  165.1145 C.2     1  UNL1       -0.0305
     29 C         140.6861  137.5358  164.5805 C.2     1  UNL1       -0.0305
     30 C         140.9343  138.6046  163.5578 C.3     1  UNL1        0.0311
     31 C         139.6980  139.4483  163.4597 C.3     1  UNL1        0.0096
@<TRIPOS>BOND
     1    20    21    2
     2    22    21    1
     3    22    23    1
     4    23    24    1
     5    24    25    2
     6    24    26   am
     7    26    19    1
     8    19    18    1
     9    18    17    1
    10    17     1    1
    11     1     2    1
    12     2     3    1
    13     3     4    1
    14     4     5    1
    15     5     8    1
    16     8     9   ar
    17     9    10   ar
    18    10    11   ar
    19    11    12   ar
    20    12    13   ar
    21    13    14   ar
    22    14    15   ar
    23    15    16   ar
    24     5     6    1
    25     6     7    1
    26    23    27    1
    27    27    28    1
    28    28    29    2
    29    30    29    1
    30    30    31    1
    31    26    21   am
    32     7     2    1
    33    31    27    1
    34    30    22    1
    35    16     8   ar
    36    16    12   ar
@<TRIPOS>MOLECULE
*****
 31 36 0 0 0
SMALL
GASTEIGER

@<TRIPOS>ATOM
      1 C         141.0620  137.9299  161.8984 C.3     1  UNL1        0.0723
      2 N         141.2595  138.6589  163.1944 N.3     1  UNL1       -0.2698
      3 C         141.7729  137.9245  164.3972 C.3     1  UNL1        0.0938
      4 C         141.9704  138.6535  165.6933 C.3     1  UNL1        0.1081
      5 N         141.6545  140.1169  165.7864 N.pl3   1  UNL1       -0.3046
      6 C         141.1411  140.8513  164.5834 C.3     1  UNL1        0.1081
      7 C         140.9436  140.1224  163.2874 C.3     1  UNL1        0.0938
      8 C         141.8520  140.8458  167.0824 C.ar    1  UNL1        0.0484
      9 C         143.0830  141.6760  167.2958 C.ar    1  UNL1        0.0146
     10 C         143.2805  142.4050  168.5919 C.ar    1  UNL1        0.0018
     11 C         142.2472  142.3037  169.6743 C.ar    1  UNL1        0.0066
     12 C         141.0162  141.4735  169.4608 C.ar    1  UNL1        0.0307
     13 S         139.8339  141.1873  170.3385 S.2     1  UNL1       -0.0864
     14 C         138.9056  140.2815  169.5849 C.ar    1  UNL1        0.0355
     15 C         139.5143  140.0079  168.2415 C.ar    1  UNL1        0.0087
     16 C         140.8186  140.7446  168.1649 C.ar    1  UNL1        0.0198
     17 C         142.2322  137.6758  160.9949 C.3     1  UNL1        0.0191
     18 C         143.6179  138.0343  161.4435 C.3     1  UNL1        0.0234
     19 C         144.2700  139.2864  160.9364 C.3     1  UNL1        0.1009
     20 O         145.2206  139.5847  164.0439 O.2     1  UNL1       -0.2745
     21 C         144.6594  140.6787  163.1847 C.2     1  UNL1        0.2316
     22 C         144.4366  142.1018  163.6030 C.3     1  UNL1        0.0900
     23 C         143.8620  142.8443  162.4331 C.3     1  UNL1        0.0900
     24 C         143.7296  141.8800  161.2918 C.2     1  UNL1        0.2316
     25 O         143.1978  142.1983  159.9258 O.2     1  UNL1       -0.2745
     26 N         144.2224  140.5416  161.7563 N.am    1  UNL1       -0.2299
     27 C         143.6392  144.2675  162.8515 C.3     1  UNL1        0.0311
     28 C         143.7716  145.2318  163.9927 C.2     1  UNL1       -0.0305
     29 C         144.3462  144.4893  165.1626 C.2     1  UNL1       -0.0305
     30 C         144.5690  143.0662  164.7443 C.3     1  UNL1        0.0311
     31 C         144.1321  142.9290  163.3159 C.3     1  UNL1        0.0096
@<TRIPOS>BOND
     1    20    21    2
     2    22    21    1
     3    22    23    1
     4    23    24    1
     5    24    25    2
     6    24    26   am
     7    26    19    1
     8    19    18    1
     9    18    17    1
    10    17     1    1
    11     1     2    1
    12     2     3    1
    13     3     4    1
    14     4     5    1
    15     5     8    1
    16     8     9   ar
    17     9    10   ar
    18    10    11   ar
    19    11    12   ar
    20    12    13   ar
    21    13    14   ar
    22    14    15   ar
    23    15    16   ar
    24     5     6    1
    25     6     7    1
    26    23    27    1
    27    27    28    1
    28    28    29    2
    29    30    29    1
    30    30    31    1
    31    26    21   am
    32     7     2    1
    33    31    27    1
    34    30    22    1
    35    16     8   ar
    36    16    12   ar
@<TRIPOS>MOLECULE
*****
 31 36 0 0 0
SMALL
GASTEIGER

@<TRIPOS>ATOM
      1 C         141.6555  144.1633  160.3137 C.3     1  UNL1        0.0723
      2 N         141.1912  143.3648  161.4956 N.3     1  UNL1       -0.2698
      3 C         140.0172  142.4410  161.3621 C.3     1  UNL1        0.0938
      4 C         139.5529  141.6424  162.5441 C.3     1  UNL1        0.1081
      5 N         140.2628  141.7679  163.8595 N.pl3   1  UNL1       -0.3046
      6 C         141.4369  142.6918  163.9930 C.3     1  UNL1        0.1081
      7 C         141.9012  143.4903  162.8111 C.3     1  UNL1        0.0938
      8 C         139.7986  140.9694  165.0414 C.ar    1  UNL1        0.0484
      9 C         138.5769  140.1062  164.9301 C.ar    1  UNL1        0.0146
     10 C         138.1125  139.3077  166.1121 C.ar    1  UNL1        0.0018
     11 C         138.8699  139.3724  167.4051 C.ar    1  UNL1        0.0066
     12 C         140.0917  140.2356  167.5163 C.ar    1  UNL1        0.0307
     13 S         141.0349  140.4983  168.6526 S.2     1  UNL1       -0.0864
     14 C         142.0822  141.4591  168.1731 C.ar    1  UNL1        0.0355
     15 C         141.7861  141.7903  166.7403 C.ar    1  UNL1        0.0087
     16 C         140.5560  141.0341  166.3345 C.ar    1  UNL1        0.0198
     17 C         142.6154  143.5602  159.3314 C.3     1  UNL1        0.0191
     18 C         143.8686  142.8956  159.8189 C.3     1  UNL1        0.0234
     19 C         143.9502  141.3989  159.8764 C.3     1  UNL1        0.1009
     20 O         141.4845  139.3447  160.4680 O.2     1  UNL1       -0.2745
     21 C         142.5567  139.7385  161.4404 C.2     1  UNL1        0.2316
     22 C         142.6835  139.2573  162.8554 C.3     1  UNL1        0.0900
     23 C         143.8954  139.9041  163.4580 C.3     1  UNL1        0.0900
     24 C         144.5174  140.7851  162.4154 C.2     1  UNL1        0.2316
     25 O         145.7503  141.6215  162.5893 O.2     1  UNL1       -0.2745
     26 N         143.6900  140.6828  161.1685 N.am    1  UNL1       -0.2299
     27 C         144.0223  139.4228  164.8730 C.3     1  UNL1        0.0311
     28 C         143.4003  138.5419  165.9156 C.2     1  UNL1       -0.0305
     29 C         142.1885  137.8951  165.3130 C.2     1  UNL1       -0.0305
     30 C         142.0615  138.3763  163.8980 C.3     1  UNL1        0.0311
     31 C         143.1949  139.3205  163.6261 C.3     1  UNL1        0.0096
@<TRIPOS>BOND
     1    20    21    2
     2    22    21    1
     3    22    23    1
     4    23    24    1
     5    24    25    2
     6    24    26   am
     7    26    19    1
     8    19    18    1
     9    18    17    1
    10    17     1    1
    11     1     2    1
    12     2     3    1
    13     3     4    1
    14     4     5    1
    15     5     8    1
    16     8     9   ar
    17     9    10   ar
    18    10    11   ar
    19    11    12   ar
    20    12    13   ar
    21    13    14   ar
    22    14    15   ar
    23    15    16   ar
    24     5     6    1
    25     6     7    1
    26    23    27    1
    27    27    28    1
    28    28    29    2
    29    30    29    1
    30    30    31    1
    31    26    21   am
    32     7     2    1
    33    31    27    1
    34    30    22    1
    35    16     8   ar
    36    16    12   ar
@<TRIPOS>MOLECULE
*****
 31 36 0 0 0
SMALL
GASTEIGER

@<TRIPOS>ATOM
      1 C         139.7836  143.1346  158.1822 C.3     1  UNL1        0.0723
      2 N         139.7123  142.4435  159.5116 N.3     1  UNL1       -0.2698
      3 C         140.9382  141.8009  160.0895 C.3     1  UNL1        0.0938
      4 C         140.8669  141.1098  161.4190 C.3     1  UNL1        0.1081
      5 N         139.5697  141.0615  162.1705 N.pl3   1  UNL1       -0.3046
      6 C         138.3437  141.7042  161.5926 C.3     1  UNL1        0.1081
      7 C         138.4150  142.3952  160.2632 C.3     1  UNL1        0.0938
      8 C         139.4985  140.3704  163.4999 C.ar    1  UNL1        0.0484
      9 C         138.1755  140.1976  164.1854 C.ar    1  UNL1        0.0146
     10 C         138.1042  139.5066  165.5149 C.ar    1  UNL1        0.0018
     11 C         139.3558  138.9883  166.1588 C.ar    1  UNL1        0.0066
     12 C         140.6788  139.1611  165.4732 C.ar    1  UNL1        0.0307
     13 S         142.0705  138.7578  165.8612 S.2     1  UNL1       -0.0864
     14 C         143.0019  139.1996  164.7716 C.ar    1  UNL1        0.0355
     15 C         142.1858  139.8759  163.7102 C.ar    1  UNL1        0.0087
     16 C         140.7502  139.8521  164.1438 C.ar    1  UNL1        0.0198
     17 C         140.2473  144.5589  158.1012 C.3     1  UNL1        0.0191
     18 C         141.0676  145.1449  159.2118 C.3     1  UNL1        0.0234
     19 C         140.3908  145.7345  160.4136 C.3     1  UNL1        0.1009
     20 O         143.1540  144.6225  161.7468 O.2     1  UNL1       -0.2745
     21 C         141.7879  144.5534  162.3625 C.2     1  UNL1        0.2316
     22 C         141.4522  143.9611  163.6991 C.3     1  UNL1        0.0900
     23 C         139.9744  144.1062  163.9123 C.3     1  UNL1        0.0900
     24 C         139.3970  144.7882  162.7075 C.2     1  UNL1        0.2316
     25 O         137.9524  145.1332  162.4975 O.2     1  UNL1       -0.2745
     26 N         140.5177  145.0646  161.7497 N.am    1  UNL1       -0.2299
     27 C         139.6387  143.5139  165.2489 C.3     1  UNL1        0.0311
     28 C         140.2161  142.8319  166.4537 C.2     1  UNL1       -0.0305
     29 C         141.6937  142.6869  166.2404 C.2     1  UNL1       -0.0305
     30 C         142.0296  143.2792  164.9039 C.3     1  UNL1        0.0311
     31 C         140.7594  143.7903  164.2910 C.3     1  UNL1        0.0096
@<TRIPOS>BOND
     1    20    21    2
     2    22    21    1
     3    22    23    1
     4    23    24    1
     5    24    25    2
     6    24    26   am
     7    26    19    1
     8    19    18    1
     9    18    17    1
    10    17     1    1
    11     1     2    1
    12     2     3    1
    13     3     4    1
    14     4     5    1
    15     5     8    1
    16     8     9   ar
    17     9    10   ar
    18    10    11   ar
    19    11    12   ar
    20    12    13   ar
    21    13    14   ar
    22    14    15   ar
    23    15    16   ar
    24     5     6    1
    25     6     7    1
    26    23    27    1
    27    27    28    1
    28    28    29    2
    29    30    29    1
    30    30    31    1
    31    26    21   am
    32     7     2    1
    33    31    27    1
    34    30    22    1
    35    16     8   ar
    36    16    12   ar
@<TRIPOS>MOLECULE
*****
 31 36 0 0 0
SMALL
GASTEIGER

@<TRIPOS>ATOM
      1 C         138.5228  141.7613  159.9100 C.3     1  UNL1        0.0723
      2 N         139.2390  141.7811  161.2278 N.3     1  UNL1       -0.2698
      3 C         140.6398  142.3106  161.3121 C.3     1  UNL1        0.0938
      4 C         141.3560  142.3304  162.6300 C.3     1  UNL1        0.1081
      5 N         140.6713  141.8208  163.8635 N.pl3   1  UNL1       -0.3046
      6 C         139.2704  141.2913  163.7791 C.3     1  UNL1        0.1081
      7 C         138.5542  141.2714  162.4613 C.3     1  UNL1        0.0938
      8 C         141.3875  141.8406  165.1813 C.ar    1  UNL1        0.0484
      9 C         142.7131  142.5318  165.3041 C.ar    1  UNL1        0.0146
     10 C         143.4294  142.5516  166.6219 C.ar    1  UNL1        0.0018
     11 C         142.8201  141.8803  167.8169 C.ar    1  UNL1        0.0066
     12 C         141.4944  141.1891  167.6940 C.ar    1  UNL1        0.0307
     13 S         140.6533  140.4471  168.6900 S.2     1  UNL1       -0.0864
     14 C         139.4172  139.9687  167.9877 C.ar    1  UNL1        0.0355
     15 C         139.4944  140.4150  166.5577 C.ar    1  UNL1        0.0087
     16 C         140.7782  141.1693  166.3763 C.ar    1  UNL1        0.0198
     17 C         138.4335  140.4868  159.1240 C.3     1  UNL1        0.0191
     18 C         139.5707  139.5091  159.1488 C.3     1  UNL1        0.0234
     19 C         139.5711  138.3840  160.1410 C.3     1  UNL1        0.1009
     20 O         138.8407  137.3631  163.1532 O.2     1  UNL1       -0.2745
     21 C         140.1431  137.9673  162.7186 C.2     1  UNL1        0.2316
     22 C         141.3383  138.2082  163.5923 C.3     1  UNL1        0.0900
     23 C         142.4128  138.8264  162.7476 C.3     1  UNL1        0.0900
     24 C         141.8815  138.9675  161.3519 C.2     1  UNL1        0.2316
     25 O         142.6230  139.5393  160.1800 O.2     1  UNL1       -0.2745
     26 N         140.4789  138.4366  161.3340 N.am    1  UNL1       -0.2299
     27 C         143.6080  139.0674  163.6213 C.3     1  UNL1        0.0311
     28 C         144.1393  138.9263  165.0170 C.2     1  UNL1       -0.0305
     29 C         143.0648  138.3081  165.8615 C.2     1  UNL1       -0.0305
     30 C         141.8695  138.0671  164.9879 C.3     1  UNL1        0.0311
     31 C         142.2053  138.5364  163.6033 C.3     1  UNL1        0.0096
@<TRIPOS>BOND
     1    20    21    2
     2    22    21    1
     3    22    23    1
     4    23    24    1
     5    24    25    2
     6    24    26   am
     7    26    19    1
     8    19    18    1
     9    18    17    1
    10    17     1    1
    11     1     2    1
    12     2     3    1
    13     3     4    1
    14     4     5    1
    15     5     8    1
    16     8     9   ar
    17     9    10   ar
    18    10    11   ar
    19    11    12   ar
    20    12    13   ar
    21    13    14   ar
    22    14    15   ar
    23    15    16   ar
    24     5     6    1
    25     6     7    1
    26    23    27    1
    27    27    28    1
    28    28    29    2
    29    30    29    1
    30    30    31    1
    31    26    21   am
    32     7     2    1
    33    31    27    1
    34    30    22    1
    35    16     8   ar
    36    16    12   ar
@<TRIPOS>MOLECULE
*****
 31 36 0 0 0
SMALL
GASTEIGER

@<TRIPOS>ATOM
      1 C         140.1696  143.5544  159.6586 C.3     1  UNL1        0.0723
      2 N         140.3716  143.1682  161.0939 N.3     1  UNL1       -0.2698
      3 C         139.7280  143.9720  162.1845 C.3     1  UNL1        0.0938
      4 C         139.9300  143.5858  163.6199 C.3     1  UNL1        0.1081
      5 N         140.7755  142.3957  163.9645 N.pl3   1  UNL1       -0.3046
      6 C         141.4192  141.5919  162.8738 C.3     1  UNL1        0.1081
      7 C         141.2172  141.9780  161.4385 C.3     1  UNL1        0.0938
      8 C         140.9775  142.0095  165.3998 C.ar    1  UNL1        0.0484
      9 C         140.3912  142.8529  166.4929 C.ar    1  UNL1        0.0146
     10 C         140.5932  142.4668  167.9283 C.ar    1  UNL1        0.0018
     11 C         141.3813  141.2373  168.2704 C.ar    1  UNL1        0.0066
     12 C         141.9675  140.3939  167.1771 C.ar    1  UNL1        0.0307
     13 S         142.7846  139.1364  167.2083 S.2     1  UNL1       -0.0864
     14 C         143.0877  138.7453  165.7922 C.ar    1  UNL1        0.0355
     15 C         142.4579  139.7612  164.8860 C.ar    1  UNL1        0.0087
     16 C         141.7657  140.7800  165.7419 C.ar    1  UNL1        0.0198
     17 C         139.2430  142.7560  158.7903 C.3     1  UNL1        0.0191
     18 C         139.1023  141.2780  159.0038 C.3     1  UNL1        0.0234
     19 C         137.9439  140.7408  159.7910 C.3     1  UNL1        0.1009
     20 O         139.4563  137.9472  160.5379 O.2     1  UNL1       -0.2745
     21 C         138.8581  138.9148  161.5158 C.2     1  UNL1        0.2316
     22 C         138.8501  138.7680  163.0085 C.3     1  UNL1        0.0900
     23 C         138.1499  139.9615  163.5878 C.3     1  UNL1        0.0900
     24 C         137.7252  140.8457  162.4530 C.2     1  UNL1        0.2316
     25 O         136.9916  142.1482  162.5771 O.2     1  UNL1       -0.2745
     26 N         138.1629  140.1988  161.1725 N.am    1  UNL1       -0.2299
     27 C         138.1419  139.8147  165.0806 C.3     1  UNL1        0.0311
     28 C         138.5666  138.9305  166.2154 C.2     1  UNL1       -0.0305
     29 C         139.2667  137.7371  165.6361 C.2     1  UNL1       -0.0305
     30 C         139.2748  137.8838  164.1433 C.3     1  UNL1        0.0311
     31 C         138.5796  139.1678  163.8000 C.3     1  UNL1        0.0096
@<TRIPOS>BOND
     1    20    21    2
     2    22    21    1
     3    22    23    1
     4    23    24    1
     5    24    25    2
     6    24    26   am
     7    26    19    1
     8    19    18    1
     9    18    17    1
    10    17     1    1
    11     1     2    1
    12     2     3    1
    13     3     4    1
    14     4     5    1
    15     5     8    1
    16     8     9   ar
    17     9    10   ar
    18    10    11   ar
    19    11    12   ar
    20    12    13   ar
    21    13    14   ar
    22    14    15   ar
    23    15    16   ar
    24     5     6    1
    25     6     7    1
    26    23    27    1
    27    27    28    1
    28    28    29    2
    29    30    29    1
    30    30    31    1
    31    26    21   am
    32     7     2    1
    33    31    27    1
    34    30    22    1
    35    16     8   ar
    36    16    12   ar
@<TRIPOS>MOLECULE
*****
 31 36 0 0 0
SMALL
GASTEIGER

@<TRIPOS>ATOM
      1 C         141.8982  144.0974  160.0776 C.3     1  UNL1        0.0723
      2 N         141.7173  143.5254  161.4524 N.3     1  UNL1       -0.2698
      3 C         142.6740  143.8905  162.5484 C.3     1  UNL1        0.0938
      4 C         142.4930  143.3184  163.9232 C.3     1  UNL1        0.1081
      5 N         141.3554  142.3814  164.2020 N.pl3   1  UNL1       -0.3046
      6 C         140.3986  142.0164  163.1058 C.3     1  UNL1        0.1081
      7 C         140.5796  142.5883  161.7310 C.3     1  UNL1        0.0938
      8 C         141.1745  141.8094  165.5768 C.ar    1  UNL1        0.0484
      9 C         142.1088  142.2037  166.6820 C.ar    1  UNL1        0.0146
     10 C         141.9279  141.6317  168.0569 C.ar    1  UNL1        0.0018
     11 C         140.8128  140.6656  168.3264 C.ar    1  UNL1        0.0066
     12 C         139.8784  140.2713  167.2211 C.ar    1  UNL1        0.0307
     13 S         138.6971  139.3475  167.1871 S.2     1  UNL1       -0.0864
     14 C         138.1479  139.3485  165.7913 C.ar    1  UNL1        0.0355
     15 C         138.9898  140.2730  164.9626 C.ar    1  UNL1        0.0087
     16 C         140.0592  140.8432  165.8463 C.ar    1  UNL1        0.0198
     17 C         142.8085  143.4194  159.0969 C.3     1  UNL1        0.0191
     18 C         142.8401  141.9220  159.0143 C.3     1  UNL1        0.0234
     19 C         143.9411  141.1568  159.6869 C.3     1  UNL1        0.1009
     20 O         145.6923  141.7228  162.3817 O.2     1  UNL1       -0.2745
     21 C         144.5154  140.7992  162.2729 C.2     1  UNL1        0.2316
     22 C         143.9369  139.9736  163.3836 C.3     1  UNL1        0.0900
     23 C         142.7743  139.2032  162.8313 C.3     1  UNL1        0.0900
     24 C         142.6344  139.5527  161.3793 C.2     1  UNL1        0.2316
     25 O         141.6000  139.0108  160.4378 O.2     1  UNL1       -0.2745
     26 N         143.7104  140.5390  161.0342 N.am    1  UNL1       -0.2299
     27 C         142.1958  138.3776  163.9421 C.3     1  UNL1        0.0311
     28 C         142.3356  138.0282  165.3941 C.2     1  UNL1       -0.0305
     29 C         143.4982  138.7986  165.9463 C.2     1  UNL1       -0.0305
     30 C         144.0768  139.6242  164.8356 C.3     1  UNL1        0.0311
     31 C         143.2718  139.3640  163.5969 C.3     1  UNL1        0.0096
@<TRIPOS>BOND
     1    20    21    2
     2    22    21    1
     3    22    23    1
     4    23    24    1
     5    24    25    2
     6    24    26   am
     7    26    19    1
     8    19    18    1
     9    18    17    1
    10    17     1    1
    11     1     2    1
    12     2     3    1
    13     3     4    1
    14     4     5    1
    15     5     8    1
    16     8     9   ar
    17     9    10   ar
    18    10    11   ar
    19    11    12   ar
    20    12    13   ar
    21    13    14   ar
    22    14    15   ar
    23    15    16   ar
    24     5     6    1
    25     6     7    1
    26    23    27    1
    27    27    28    1
    28    28    29    2
    29    30    29    1
    30    30    31    1
    31    26    21   am
    32     7     2    1
    33    31    27    1
    34    30    22    1
    35    16     8   ar
    36    16    12   ar
