@<TRIPOS>MOLECULE
*****
 24 27 0 0 0
SMALL
GASTEIGER

@<TRIPOS>ATOM
      1 C         139.3659  137.6474  164.4958 C.ar    1  UNL1       -0.0207
      2 C         140.8533  137.4877  164.6059 C.ar    1  UNL1       -0.0027
      3 C         141.7156  137.6345  163.3874 C.ar    1  UNL1        0.0188
      4 C         141.0905  137.9409  162.0587 C.ar    1  UNL1        0.0812
      5 N         141.9529  138.0876  160.8402 N.ar    1  UNL1       -0.2453
      6 C         141.3279  138.3940  159.5115 C.ar    1  UNL1        0.0828
      7 C         139.8404  138.5537  159.4014 C.ar    1  UNL1        0.0192
      8 C         138.9781  138.4069  160.6199 C.ar    1  UNL1        0.0030
      9 C         139.6032  138.1005  161.9486 C.ar    1  UNL1        0.0174
     10 C         138.7409  137.9538  163.1671 C.ar    1  UNL1       -0.0027
     11 C         142.1902  138.5408  158.2930 C.ar    1  UNL1        0.0368
     12 C         142.5164  139.9064  157.7650 C.ar    1  UNL1        0.0046
     13 C         143.3787  140.0532  156.5465 C.ar    1  UNL1        0.0207
     14 C         143.9148  138.8344  155.8559 C.ar    1  UNL1        0.0989
     15 N         143.5886  137.4688  156.3837 N.ar    1  UNL1       -0.2423
     16 C         142.7263  137.3219  157.6023 C.ar    1  UNL1        0.1003
     17 C         138.5035  137.5006  165.7143 C.3     1  UNL1        0.0437
     18 C         138.0337  138.7193  166.4519 C.3     1  UNL1        0.0768
     19 C         138.2827  141.2765  164.4400 C.3     1  UNL1        0.0173
     20 C         139.0676  141.0671  165.7009 C.3     1  UNL1        0.0576
     21 C         140.1048  141.9963  166.2585 C.3     1  UNL1        0.0174
     22 C         140.6314  141.3952  167.5279 C.3     1  UNL1        0.0187
     23 C         139.9196  140.0944  167.7548 C.3     1  UNL1        0.0721
     24 N         138.9532  139.8917  166.6257 N.3     1  UNL1       -0.2737
@<TRIPOS>BOND
     1    20    19    1
     2    20    21    1
     3    21    22    1
     4    22    23    1
     5    23    24    1
     6    24    18    1
     7    18    17    1
     8    17     1    1
     9     1     2   ar
    10     2     3   ar
    11     3     4   ar
    12     4     5   ar
    13     5     6   ar
    14     6    11    1
    15    11    12   ar
    16    12    13   ar
    17    13    14   ar
    18    14    15   ar
    19    15    16   ar
    20     6     7   ar
    21     7     8   ar
    22     8     9   ar
    23     9    10   ar
    24    24    20    1
    25    10     1   ar
    26     9     4   ar
    27    16    11   ar
@<TRIPOS>MOLECULE
*****
 24 27 0 0 0
SMALL
GASTEIGER

@<TRIPOS>ATOM
      1 C         138.5916  139.5102  165.8052 C.ar    1  UNL1       -0.0207
      2 C         138.8278  138.2778  164.9833 C.ar    1  UNL1       -0.0027
      3 C         138.8205  138.3623  163.4858 C.ar    1  UNL1        0.0188
      4 C         138.5769  139.6791  162.8100 C.ar    1  UNL1        0.0812
      5 N         138.5696  139.7635  161.3124 N.ar    1  UNL1       -0.2453
      6 C         138.3260  141.0803  160.6366 C.ar    1  UNL1        0.0828
      7 C         138.0897  142.3127  161.4585 C.ar    1  UNL1        0.0192
      8 C         138.0971  142.2283  162.9561 C.ar    1  UNL1        0.0030
      9 C         138.3407  140.9115  163.6318 C.ar    1  UNL1        0.0174
     10 C         138.3480  140.8270  165.1294 C.ar    1  UNL1       -0.0027
     11 C         138.3187  141.1648  159.1390 C.ar    1  UNL1        0.0368
     12 C         138.1948  142.4984  158.4636 C.ar    1  UNL1        0.0046
     13 C         138.1874  142.5829  156.9660 C.ar    1  UNL1        0.0207
     14 C         138.3040  141.3338  156.1438 C.ar    1  UNL1        0.0989
     15 N         138.4279  140.0002  156.8191 N.ar    1  UNL1       -0.2423
     16 C         138.4352  139.9157  158.3168 C.ar    1  UNL1        0.1003
     17 C         138.5989  139.4258  167.3028 C.3     1  UNL1        0.0437
     18 C         139.8439  139.7661  168.0671 C.3     1  UNL1        0.0768
     19 C         141.0823  142.5148  166.8180 C.3     1  UNL1        0.0173
     20 C         140.5225  142.3481  168.1996 C.3     1  UNL1        0.0576
     21 C         140.4337  143.4157  169.2496 C.3     1  UNL1        0.0174
     22 C         139.8096  142.8120  170.4727 C.3     1  UNL1        0.0187
     23 C         139.5126  141.3713  170.1786 C.3     1  UNL1        0.0721
     24 N         139.9533  141.0847  168.7737 N.3     1  UNL1       -0.2737
@<TRIPOS>BOND
     1    20    19    1
     2    20    21    1
     3    21    22    1
     4    22    23    1
     5    23    24    1
     6    24    18    1
     7    18    17    1
     8    17     1    1
     9     1     2   ar
    10     2     3   ar
    11     3     4   ar
    12     4     5   ar
    13     5     6   ar
    14     6    11    1
    15    11    12   ar
    16    12    13   ar
    17    13    14   ar
    18    14    15   ar
    19    15    16   ar
    20     6     7   ar
    21     7     8   ar
    22     8     9   ar
    23     9    10   ar
    24    24    20    1
    25    10     1   ar
    26     9     4   ar
    27    16    11   ar
@<TRIPOS>MOLECULE
*****
 24 27 0 0 0
SMALL
GASTEIGER

@<TRIPOS>ATOM
      1 C         138.3606  139.0632  162.9581 C.ar    1  UNL1       -0.0207
      2 C         139.0499  138.0502  163.8234 C.ar    1  UNL1       -0.0027
      3 C         139.8064  138.4939  165.0402 C.ar    1  UNL1        0.0188
      4 C         139.8737  139.9506  165.3918 C.ar    1  UNL1        0.0812
      5 N         140.6303  140.3942  166.6087 N.ar    1  UNL1       -0.2453
      6 C         140.6975  141.8509  166.9603 C.ar    1  UNL1        0.0828
      7 C         140.0082  142.8639  166.0949 C.ar    1  UNL1        0.0192
      8 C         139.2517  142.4202  164.8781 C.ar    1  UNL1        0.0030
      9 C         139.1844  140.9635  164.5265 C.ar    1  UNL1        0.0174
     10 C         138.4279  140.5198  163.3097 C.ar    1  UNL1       -0.0027
     11 C         141.4541  142.2946  168.1771 C.ar    1  UNL1        0.0368
     12 C         142.8978  141.9213  168.3402 C.ar    1  UNL1        0.0046
     13 C         143.6543  142.3650  169.5570 C.ar    1  UNL1        0.0207
     14 C         142.9673  143.1820  170.6108 C.ar    1  UNL1        0.0989
     15 N         141.5237  143.5553  170.4478 N.ar    1  UNL1       -0.2423
     16 C         140.7670  143.1116  169.2309 C.ar    1  UNL1        0.1003
     17 C         137.6040  138.6195  161.7412 C.3     1  UNL1        0.0437
     18 C         137.4841  139.5336  160.5580 C.3     1  UNL1        0.0768
     19 C         138.7027  142.5398  160.2022 C.3     1  UNL1        0.0173
     20 C         139.2651  141.2842  159.6048 C.3     1  UNL1        0.0576
     21 C         140.4863  141.1898  158.7390 C.3     1  UNL1        0.0174
     22 C         140.6810  139.7496  158.3674 C.3     1  UNL1        0.0187
     23 C         139.5800  138.9539  159.0036 C.3     1  UNL1        0.0721
     24 N         138.7050  139.9023  159.7684 N.3     1  UNL1       -0.2737
@<TRIPOS>BOND
     1    20    19    1
     2    20    21    1
     3    21    22    1
     4    22    23    1
     5    23    24    1
     6    24    18    1
     7    18    17    1
     8    17     1    1
     9     1     2   ar
    10     2     3   ar
    11     3     4   ar
    12     4     5   ar
    13     5     6   ar
    14     6    11    1
    15    11    12   ar
    16    12    13   ar
    17    13    14   ar
    18    14    15   ar
    19    15    16   ar
    20     6     7   ar
    21     7     8   ar
    22     8     9   ar
    23     9    10   ar
    24    24    20    1
    25    10     1   ar
    26     9     4   ar
    27    16    11   ar
@<TRIPOS>MOLECULE
*****
 24 27 0 0 0
SMALL
GASTEIGER

@<TRIPOS>ATOM
      1 C         141.9379  139.7995  167.4246 C.ar    1  UNL1       -0.0207
      2 C         140.5411  139.5693  166.9289 C.ar    1  UNL1       -0.0027
      3 C         140.0742  140.2323  165.6671 C.ar    1  UNL1        0.0188
      4 C         141.0043  141.1256  164.9008 C.ar    1  UNL1        0.0812
      5 N         140.5374  141.7886  163.6389 N.ar    1  UNL1       -0.2453
      6 C         141.4674  142.6819  162.8726 C.ar    1  UNL1        0.0828
      7 C         142.8644  142.9121  163.3684 C.ar    1  UNL1        0.0192
      8 C         143.3312  142.2490  164.6303 C.ar    1  UNL1        0.0030
      9 C         142.4012  141.3558  165.3965 C.ar    1  UNL1        0.0174
     10 C         142.8680  140.6927  166.6584 C.ar    1  UNL1       -0.0027
     11 C         141.0006  143.3449  161.6108 C.ar    1  UNL1        0.0368
     12 C         141.8564  144.3838  160.9485 C.ar    1  UNL1        0.0046
     13 C         141.3896  145.0469  159.6866 C.ar    1  UNL1        0.0207
     14 C         140.0670  144.6711  159.0869 C.ar    1  UNL1        0.0989
     15 N         139.2113  143.6322  159.7491 N.ar    1  UNL1       -0.2423
     16 C         139.6781  142.9691  161.0110 C.ar    1  UNL1        0.1003
     17 C         142.4048  139.1364  168.6866 C.3     1  UNL1        0.0437
     18 C         142.0789  139.7448  170.0183 C.3     1  UNL1        0.0768
     19 C         143.8014  142.5071  169.7901 C.3     1  UNL1        0.0173
     20 C         142.3177  142.4070  169.9867 C.3     1  UNL1        0.0576
     21 C         141.3653  143.5589  170.1130 C.3     1  UNL1        0.0174
     22 C         139.9849  143.0012  170.2959 C.3     1  UNL1        0.0187
     23 C         140.0842  141.5044  170.2827 C.3     1  UNL1        0.0721
     24 N         141.5260  141.1373  170.0916 N.3     1  UNL1       -0.2737
@<TRIPOS>BOND
     1    20    19    1
     2    20    21    1
     3    21    22    1
     4    22    23    1
     5    23    24    1
     6    24    18    1
     7    18    17    1
     8    17     1    1
     9     1     2   ar
    10     2     3   ar
    11     3     4   ar
    12     4     5   ar
    13     5     6   ar
    14     6    11    1
    15    11    12   ar
    16    12    13   ar
    17    13    14   ar
    18    14    15   ar
    19    15    16   ar
    20     6     7   ar
    21     7     8   ar
    22     8     9   ar
    23     9    10   ar
    24    24    20    1
    25    10     1   ar
    26     9     4   ar
    27    16    11   ar
@<TRIPOS>MOLECULE
*****
 24 27 0 0 0
SMALL
GASTEIGER

@<TRIPOS>ATOM
      1 C         142.7072  138.4297  165.2478 C.ar    1  UNL1       -0.0207
      2 C         141.5156  137.5894  164.8955 C.ar    1  UNL1       -0.0027
      3 C         141.1710  137.3427  163.4566 C.ar    1  UNL1        0.0188
      4 C         142.0179  137.9362  162.3701 C.ar    1  UNL1        0.0812
      5 N         141.6732  137.6895  160.9312 N.ar    1  UNL1       -0.2453
      6 C         142.5201  138.2830  159.8447 C.ar    1  UNL1        0.0828
      7 C         143.7117  139.1233  160.1971 C.ar    1  UNL1        0.0192
      8 C         144.0563  139.3700  161.6360 C.ar    1  UNL1        0.0030
      9 C         143.2094  138.7765  162.7225 C.ar    1  UNL1        0.0174
     10 C         143.5541  139.0232  164.1613 C.ar    1  UNL1       -0.0027
     11 C         142.1755  138.0363  158.4059 C.ar    1  UNL1        0.0368
     12 C         142.7645  136.8603  157.6846 C.ar    1  UNL1        0.0046
     13 C         142.4198  136.6136  156.2457 C.ar    1  UNL1        0.0207
     14 C         141.4862  137.5428  155.5281 C.ar    1  UNL1        0.0989
     15 N         140.8973  138.7187  156.2494 N.ar    1  UNL1       -0.2423
     16 C         141.2419  138.9655  157.6883 C.ar    1  UNL1        0.1003
     17 C         143.0518  138.6764  166.6867 C.3     1  UNL1        0.0437
     18 C         142.6818  139.9780  167.3340 C.3     1  UNL1        0.0768
     19 C         139.5274  140.3104  166.5671 C.3     1  UNL1        0.0173
     20 C         140.0897  140.1877  167.9522 C.3     1  UNL1        0.0576
     21 C         139.3009  140.1962  169.2280 C.3     1  UNL1        0.0174
     22 C         140.2633  140.0487  170.3691 C.3     1  UNL1        0.0187
     23 C         141.6470  139.9490  169.7985 C.3     1  UNL1        0.0721
     24 N         141.5397  140.0349  168.3048 N.3     1  UNL1       -0.2737
@<TRIPOS>BOND
     1    20    19    1
     2    20    21    1
     3    21    22    1
     4    22    23    1
     5    23    24    1
     6    24    18    1
     7    18    17    1
     8    17     1    1
     9     1     2   ar
    10     2     3   ar
    11     3     4   ar
    12     4     5   ar
    13     5     6   ar
    14     6    11    1
    15    11    12   ar
    16    12    13   ar
    17    13    14   ar
    18    14    15   ar
    19    15    16   ar
    20     6     7   ar
    21     7     8   ar
    22     8     9   ar
    23     9    10   ar
    24    24    20    1
    25    10     1   ar
    26     9     4   ar
    27    16    11   ar
@<TRIPOS>MOLECULE
*****
 24 27 0 0 0
SMALL
GASTEIGER

@<TRIPOS>ATOM
      1 C         138.5117  139.1341  165.7921 C.ar    1  UNL1       -0.0207
      2 C         138.9173  137.8383  165.1548 C.ar    1  UNL1       -0.0027
      3 C         139.0020  137.7314  163.6610 C.ar    1  UNL1        0.0188
      4 C         138.6812  138.9203  162.8046 C.ar    1  UNL1        0.0812
      5 N         138.7659  138.8133  161.3107 N.ar    1  UNL1       -0.2453
      6 C         138.4450  140.0023  160.4543 C.ar    1  UNL1        0.0828
      7 C         138.0394  141.2982  161.0917 C.ar    1  UNL1        0.0192
      8 C         137.9547  141.4051  162.5854 C.ar    1  UNL1        0.0030
      9 C         138.2755  140.2162  163.4419 C.ar    1  UNL1        0.0174
     10 C         138.1908  140.3231  164.9356 C.ar    1  UNL1       -0.0027
     11 C         138.5298  139.8953  158.9605 C.ar    1  UNL1        0.0368
     12 C         137.7774  140.8627  158.0955 C.ar    1  UNL1        0.0046
     13 C         137.8622  140.7558  156.6017 C.ar    1  UNL1        0.0207
     14 C         138.6993  139.6815  155.9729 C.ar    1  UNL1        0.0989
     15 N         139.4516  138.7142  156.8379 N.ar    1  UNL1       -0.2423
     16 C         139.3669  138.8211  158.3318 C.ar    1  UNL1        0.1003
     17 C         138.4269  139.2411  167.2859 C.3     1  UNL1        0.0437
     18 C         139.4906  139.9757  168.0468 C.3     1  UNL1        0.0768
     19 C         140.2383  142.9109  166.8323 C.3     1  UNL1        0.0173
     20 C         141.1196  141.6973  166.8108 C.3     1  UNL1        0.0576
     21 C         142.4992  141.6197  166.2272 C.3     1  UNL1        0.0174
     22 C         143.0083  140.2226  166.4248 C.3     1  UNL1        0.0187
     23 C         141.9431  139.4367  167.1305 C.3     1  UNL1        0.0721
     24 N         140.7759  140.3481  167.3690 N.3     1  UNL1       -0.2737
@<TRIPOS>BOND
     1    20    19    1
     2    20    21    1
     3    21    22    1
     4    22    23    1
     5    23    24    1
     6    24    18    1
     7    18    17    1
     8    17     1    1
     9     1     2   ar
    10     2     3   ar
    11     3     4   ar
    12     4     5   ar
    13     5     6   ar
    14     6    11    1
    15    11    12   ar
    16    12    13   ar
    17    13    14   ar
    18    14    15   ar
    19    15    16   ar
    20     6     7   ar
    21     7     8   ar
    22     8     9   ar
    23     9    10   ar
    24    24    20    1
    25    10     1   ar
    26     9     4   ar
    27    16    11   ar
@<TRIPOS>MOLECULE
*****
 24 27 0 0 0
SMALL
GASTEIGER

@<TRIPOS>ATOM
      1 C         143.4824  138.6815  162.8010 C.ar    1  UNL1       -0.0207
      2 C         144.4264  139.6520  163.4467 C.ar    1  UNL1       -0.0027
      3 C         144.0094  140.3955  164.6808 C.ar    1  UNL1        0.0188
      4 C         142.6485  140.1685  165.2693 C.ar    1  UNL1        0.0812
      5 N         142.2315  140.9121  166.5036 N.ar    1  UNL1       -0.2453
      6 C         140.8705  140.6851  167.0921 C.ar    1  UNL1        0.0828
      7 C         139.9266  139.7145  166.4463 C.ar    1  UNL1        0.0192
      8 C         140.3436  138.9709  165.2121 C.ar    1  UNL1        0.0030
      9 C         141.7045  139.1980  164.6236 C.ar    1  UNL1        0.0174
     10 C         142.1215  138.4544  163.3895 C.ar    1  UNL1       -0.0027
     11 C         140.4535  141.4286  168.3262 C.ar    1  UNL1        0.0368
     12 C         140.8634  142.8593  168.5144 C.ar    1  UNL1        0.0046
     13 C         140.4464  143.6028  169.7486 C.ar    1  UNL1        0.0207
     14 C         139.6196  142.9157  170.7946 C.ar    1  UNL1        0.0989
     15 N         139.2097  141.4851  170.6066 N.ar    1  UNL1       -0.2423
     16 C         139.6267  140.7415  169.3723 C.ar    1  UNL1        0.1003
     17 C         143.8994  137.9379  161.5667 C.3     1  UNL1        0.0437
     18 C         143.5845  138.4980  160.2114 C.3     1  UNL1        0.0768
     19 C         140.3652  139.0320  160.2271 C.3     1  UNL1        0.0173
     20 C         141.4318  140.0785  160.0966 C.3     1  UNL1        0.0576
     21 C         141.2060  141.5542  159.9505 C.3     1  UNL1        0.0174
     22 C         142.5463  142.2208  159.8529 C.3     1  UNL1        0.0187
     23 C         143.6004  141.1570  159.9388 C.3     1  UNL1        0.0721
     24 N         142.9115  139.8331  160.0894 N.3     1  UNL1       -0.2737
@<TRIPOS>BOND
     1    20    19    1
     2    20    21    1
     3    21    22    1
     4    22    23    1
     5    23    24    1
     6    24    18    1
     7    18    17    1
     8    17     1    1
     9     1     2   ar
    10     2     3   ar
    11     3     4   ar
    12     4     5   ar
    13     5     6   ar
    14     6    11    1
    15    11    12   ar
    16    12    13   ar
    17    13    14   ar
    18    14    15   ar
    19    15    16   ar
    20     6     7   ar
    21     7     8   ar
    22     8     9   ar
    23     9    10   ar
    24    24    20    1
    25    10     1   ar
    26     9     4   ar
    27    16    11   ar
@<TRIPOS>MOLECULE
*****
 24 27 0 0 0
SMALL
GASTEIGER

@<TRIPOS>ATOM
      1 C         139.3328  137.7781  164.0362 C.ar    1  UNL1       -0.0207
      2 C         138.3885  137.9740  162.8873 C.ar    1  UNL1       -0.0027
      3 C         138.9253  138.1751  161.5012 C.ar    1  UNL1        0.0188
      4 C         140.4064  138.1803  161.2640 C.ar    1  UNL1        0.0812
      5 N         140.9432  138.3815  159.8778 N.ar    1  UNL1       -0.2453
      6 C         142.4243  138.3867  159.6405 C.ar    1  UNL1        0.0828
      7 C         143.3686  138.1908  160.7895 C.ar    1  UNL1        0.0192
      8 C         142.8318  137.9897  162.1756 C.ar    1  UNL1        0.0030
      9 C         141.3507  137.9844  162.4128 C.ar    1  UNL1        0.0174
     10 C         140.8139  137.7833  163.7989 C.ar    1  UNL1       -0.0027
     11 C         142.9611  138.5878  158.2544 C.ar    1  UNL1        0.0368
     12 C         143.5851  139.8980  157.8745 C.ar    1  UNL1        0.0046
     13 C         144.1219  140.0991  156.4884 C.ar    1  UNL1        0.0207
     14 C         144.0348  138.9901  155.4821 C.ar    1  UNL1        0.0989
     15 N         143.4109  137.6800  155.8620 N.ar    1  UNL1       -0.2423
     16 C         142.8741  137.4788  157.2482 C.ar    1  UNL1        0.1003
     17 C         138.7960  137.5770  165.4224 C.3     1  UNL1        0.0437
     18 C         138.2197  138.7368  166.1791 C.3     1  UNL1        0.0768
     19 C         138.0505  141.3358  164.2129 C.3     1  UNL1        0.0173
     20 C         138.9307  141.1991  165.4198 C.3     1  UNL1        0.0576
     21 C         139.8876  142.2331  165.9348 C.3     1  UNL1        0.0174
     22 C         140.5568  141.6774  167.1570 C.3     1  UNL1        0.0187
     23 C         140.0134  140.3000  167.3972 C.3     1  UNL1        0.0721
     24 N         139.0084  140.0045  166.3235 N.3     1  UNL1       -0.2737
@<TRIPOS>BOND
     1    20    19    1
     2    20    21    1
     3    21    22    1
     4    22    23    1
     5    23    24    1
     6    24    18    1
     7    18    17    1
     8    17     1    1
     9     1     2   ar
    10     2     3   ar
    11     3     4   ar
    12     4     5   ar
    13     5     6   ar
    14     6    11    1
    15    11    12   ar
    16    12    13   ar
    17    13    14   ar
    18    14    15   ar
    19    15    16   ar
    20     6     7   ar
    21     7     8   ar
    22     8     9   ar
    23     9    10   ar
    24    24    20    1
    25    10     1   ar
    26     9     4   ar
    27    16    11   ar
@<TRIPOS>MOLECULE
*****
 24 27 0 0 0
SMALL
GASTEIGER

@<TRIPOS>ATOM
      1 C         140.2196  145.1537  162.6003 C.ar    1  UNL1       -0.0207
      2 C         139.0379  144.8449  163.4710 C.ar    1  UNL1       -0.0027
      3 C         139.2227  144.0584  164.7348 C.ar    1  UNL1        0.0188
      4 C         140.5892  143.5808  165.1279 C.ar    1  UNL1        0.0812
      5 N         140.7740  142.7943  166.3918 N.ar    1  UNL1       -0.2453
      6 C         142.1405  142.3166  166.7849 C.ar    1  UNL1        0.0828
      7 C         143.3222  142.6255  165.9141 C.ar    1  UNL1        0.0192
      8 C         143.1374  143.4119  164.6503 C.ar    1  UNL1        0.0030
      9 C         141.7709  143.8896  164.2572 C.ar    1  UNL1        0.0174
     10 C         141.5861  144.6760  162.9934 C.ar    1  UNL1       -0.0027
     11 C         142.3253  141.5302  168.0487 C.ar    1  UNL1        0.0368
     12 C         142.4112  140.0335  167.9950 C.ar    1  UNL1        0.0046
     13 C         142.5960  139.2471  169.2589 C.ar    1  UNL1        0.0207
     14 C         142.6950  139.9572  170.5764 C.ar    1  UNL1        0.0989
     15 N         142.6091  141.4537  170.6302 N.ar    1  UNL1       -0.2423
     16 C         142.4243  142.2402  169.3663 C.ar    1  UNL1        0.1003
     17 C         140.0349  145.9402  161.3364 C.3     1  UNL1        0.0437
     18 C         140.3242  145.3050  160.0087 C.3     1  UNL1        0.0768
     19 C         142.8810  143.2931  159.7546 C.3     1  UNL1        0.0173
     20 C         141.4366  142.8888  159.7444 C.3     1  UNL1        0.0576
     21 C         140.9138  141.4888  159.6156 C.3     1  UNL1        0.0174
     22 C         139.4154  141.5482  159.6528 C.3     1  UNL1        0.0187
     23 C         139.0121  142.9851  159.8046 C.3     1  UNL1        0.0721
     24 N         140.2613  143.8135  159.8612 N.3     1  UNL1       -0.2737
@<TRIPOS>BOND
     1    20    19    1
     2    20    21    1
     3    21    22    1
     4    22    23    1
     5    23    24    1
     6    24    18    1
     7    18    17    1
     8    17     1    1
     9     1     2   ar
    10     2     3   ar
    11     3     4   ar
    12     4     5   ar
    13     5     6   ar
    14     6    11    1
    15    11    12   ar
    16    12    13   ar
    17    13    14   ar
    18    14    15   ar
    19    15    16   ar
    20     6     7   ar
    21     7     8   ar
    22     8     9   ar
    23     9    10   ar
    24    24    20    1
    25    10     1   ar
    26     9     4   ar
    27    16    11   ar
