@<TRIPOS>MOLECULE
*****
 37 40 0 0 0
SMALL
GASTEIGER

@<TRIPOS>ATOM
      1 C         142.6291  138.7766  159.0042 C.3     1  UNL1        0.0758
      2 C         143.2284  138.1064  160.2049 C.3     1  UNL1        0.0370
      3 C         142.3567  137.7271  161.3652 C.3     1  UNL1        0.0741
      4 N         140.8857  138.0181  161.3248 N.3     1  UNL1       -0.2688
      5 C         140.2865  138.6883  160.1240 C.3     1  UNL1        0.0741
      6 C         141.1582  139.0675  158.9638 C.3     1  UNL1        0.0370
      7 C         145.2444  139.9142  155.5233 C.3     1  UNL1        0.1165
      8 N         145.1154  140.8381  156.6980 N.am    1  UNL1       -0.2601
      9 C         144.2436  140.4590  157.8583 C.2     1  UNL1        0.3040
     10 O         144.1146  141.3829  159.0328 O.2     1  UNL1       -0.2526
     11 N         143.5009  139.1558  157.8439 N.am    1  UNL1       -0.2903
     12 H         143.5856  138.5494  157.0730 H       1  UNL1        0.1509
     13 C         145.8581  142.1413  156.7123 C.3     1  UNL1        0.1217
     14 C         146.4845  142.6615  155.4526 C.3     1  UNL1        0.1066
     15 O         145.1123  143.2536  155.3249 O.3     1  UNL1       -0.3851
     16 C         147.6392  141.8887  156.0177 C.3     1  UNL1        0.0286
     17 C         148.9437  141.8419  155.2788 C.3     1  UNL1        0.0025
     18 C         149.0935  142.5678  153.9747 C.3     1  UNL1        0.0002
     19 C         147.9388  143.3406  153.4096 C.3     1  UNL1        0.0025
     20 C         146.6343  143.3874  154.1485 C.3     1  UNL1        0.0286
     21 H         144.5762  142.9955  156.0910 H       1  UNL1        0.2103
     22 C         140.0139  137.6389  162.4850 C.3     1  UNL1        0.1007
     23 C         139.7911  138.6114  163.6051 C.ar    1  UNL1        0.0129
     24 C         138.4842  139.2499  163.9715 C.ar    1  UNL1        0.0176
     25 C         138.7215  140.1493  165.1483 C.ar    1  UNL1        0.0799
     26 N         140.1752  140.0667  165.5091 N.ar    1  UNL1       -0.3038
     27 C         140.8362  139.1162  164.5553 C.ar    1  UNL1        0.0772
     28 C         140.8493  140.8049  166.6274 C.ar    1  UNL1        0.0640
     29 C         142.2421  141.3313  166.4462 C.ar    1  UNL1        0.0175
     30 C         142.9163  142.0696  167.5644 C.ar    1  UNL1        0.0053
     31 C         142.1976  142.2814  168.8639 C.ar    1  UNL1        0.0715
     32 C         140.8048  141.7550  169.0452 C.ar    1  UNL1        0.0053
     33 C         140.1306  141.0167  167.9269 C.ar    1  UNL1        0.0175
     34 C         142.8718  143.0197  169.9821 C.3     1  UNL1        0.4186
     35 F         143.5460  143.7580  171.1004 F       1  UNL1       -0.1659
     36 F         144.1298  142.2398  169.7386 F       1  UNL1       -0.1659
     37 F         141.6139  143.7995  170.2256 F       1  UNL1       -0.1659
@<TRIPOS>BOND
     1     7     8    1
     2     8    13    1
     3    13    14    1
     4    14    15    1
     5    14    16    1
     6    16    17    1
     7    17    18    1
     8    18    19    1
     9    19    20    1
    10     8     9   am
    11     9    10    2
    12     9    11   am
    13    11     1    1
    14     1     2    1
    15     2     3    1
    16     3     4    1
    17     4    22    1
    18    22    23    1
    19    23    24   ar
    20    24    25   ar
    21    25    26   ar
    22    26    28    1
    23    28    29   ar
    24    29    30   ar
    25    30    31   ar
    26    31    34    1
    27    34    35    1
    28    34    36    1
    29    34    37    1
    30    31    32   ar
    31    32    33   ar
    32    26    27   ar
    33     4     5    1
    34     5     6    1
    35    20    14    1
    36     6     1    1
    37    27    23   ar
    38    33    28   ar
    39    15    21    1
    40    11    12    1
@<TRIPOS>MOLECULE
*****
 37 40 0 0 0
SMALL
GASTEIGER

@<TRIPOS>ATOM
      1 C         142.4136  138.9264  158.3794 C.3     1  UNL1        0.0758
      2 C         140.9726  139.2074  158.0713 C.3     1  UNL1        0.0370
      3 C         139.9156  138.9121  159.0939 C.3     1  UNL1        0.0741
      4 N         140.2995  138.3359  160.4245 N.3     1  UNL1       -0.2688
      5 C         141.7404  138.0549  160.7325 C.3     1  UNL1        0.0741
      6 C         142.7974  138.3502  159.7101 C.3     1  UNL1        0.0370
      7 C         145.5844  139.8121  155.3116 C.3     1  UNL1        0.1165
      8 N         145.3846  140.7400  156.4732 N.am    1  UNL1       -0.2601
      9 C         144.3276  140.4447  157.4958 C.2     1  UNL1        0.3040
     10 O         144.1279  141.3727  158.6573 O.2     1  UNL1       -0.2526
     11 N         143.4705  139.2216  157.3569 N.am    1  UNL1       -0.2903
     12 H         143.6016  138.6127  156.5945 H       1  UNL1        0.1509
     13 C         146.2417  141.9631  156.6121 C.3     1  UNL1        0.1217
     14 C         146.7425  142.6711  155.3882 C.3     1  UNL1        0.1066
     15 O         145.3521  143.2291  155.4614 O.3     1  UNL1       -0.3851
     16 C         147.9590  141.8671  155.7401 C.3     1  UNL1        0.0286
     17 C         149.1933  141.9650  154.8934 C.3     1  UNL1        0.0025
     18 C         149.2111  142.8668  153.6949 C.3     1  UNL1        0.0002
     19 C         147.9946  143.6708  153.3431 C.3     1  UNL1        0.0025
     20 C         146.7603  143.5729  154.1897 C.3     1  UNL1        0.0286
     21 H         144.8919  142.8511  156.2270 H       1  UNL1        0.2103
     22 C         139.2426  138.0406  161.4470 C.3     1  UNL1        0.1007
     23 C         138.9632  139.0260  162.5430 C.ar    1  UNL1        0.0129
     24 C         137.9744  140.1525  162.4848 C.ar    1  UNL1        0.0176
     25 C         138.0237  140.8806  163.7954 C.ar    1  UNL1        0.0799
     26 N         139.0429  140.2040  164.6635 N.ar    1  UNL1       -0.3038
     27 C         139.6236  139.0578  163.8894 C.ar    1  UNL1        0.0772
     28 C         139.4160  140.6036  166.0603 C.ar    1  UNL1        0.0640
     29 C         139.1070  139.6903  167.2094 C.ar    1  UNL1        0.0175
     30 C         139.4800  140.0898  168.6063 C.ar    1  UNL1        0.0053
     31 C         140.1620  141.4026  168.8540 C.ar    1  UNL1        0.0715
     32 C         140.4710  142.3159  167.7050 C.ar    1  UNL1        0.0053
     33 C         140.0980  141.9164  166.3081 C.ar    1  UNL1        0.0175
     34 C         140.5350  141.8021  170.2509 C.3     1  UNL1        0.4186
     35 F         140.9081  142.2016  171.6478 F       1  UNL1       -0.1659
     36 F         139.9988  143.1804  170.0000 F       1  UNL1       -0.1659
     37 F         141.0712  140.4239  170.5018 F       1  UNL1       -0.1659
@<TRIPOS>BOND
     1     7     8    1
     2     8    13    1
     3    13    14    1
     4    14    15    1
     5    14    16    1
     6    16    17    1
     7    17    18    1
     8    18    19    1
     9    19    20    1
    10     8     9   am
    11     9    10    2
    12     9    11   am
    13    11     1    1
    14     1     2    1
    15     2     3    1
    16     3     4    1
    17     4    22    1
    18    22    23    1
    19    23    24   ar
    20    24    25   ar
    21    25    26   ar
    22    26    28    1
    23    28    29   ar
    24    29    30   ar
    25    30    31   ar
    26    31    34    1
    27    34    35    1
    28    34    36    1
    29    34    37    1
    30    31    32   ar
    31    32    33   ar
    32    26    27   ar
    33     4     5    1
    34     5     6    1
    35    20    14    1
    36     6     1    1
    37    27    23   ar
    38    33    28   ar
    39    15    21    1
    40    11    12    1
@<TRIPOS>MOLECULE
*****
 37 40 0 0 0
SMALL
GASTEIGER

@<TRIPOS>ATOM
      1 C         143.3149  140.1057  157.9675 C.3     1  UNL1        0.0758
      2 C         143.8620  140.1786  159.3624 C.3     1  UNL1        0.0370
      3 C         143.5272  141.3488  160.2391 C.3     1  UNL1        0.0741
      4 N         142.6454  142.4460  159.7209 N.3     1  UNL1       -0.2688
      5 C         142.0983  142.3730  158.3261 C.3     1  UNL1        0.0741
      6 C         142.4331  141.2029  157.4495 C.3     1  UNL1        0.0370
      7 C         144.3196  136.5951  155.3376 C.3     1  UNL1        0.1165
      8 N         143.2097  136.4873  156.3408 N.am    1  UNL1       -0.2601
      9 C         142.8748  137.6575  157.2175 C.2     1  UNL1        0.3040
     10 O         141.7648  137.5496  158.2207 O.2     1  UNL1       -0.2526
     11 N         143.6498  138.9355  157.0909 N.am    1  UNL1       -0.2903
     12 H         144.3782  139.0062  156.4324 H       1  UNL1        0.1509
     13 C         142.4346  135.2093  156.4675 C.3     1  UNL1        0.1217
     14 C         143.0563  133.9103  156.0476 C.3     1  UNL1        0.1066
     15 O         142.2053  134.1927  154.8450 O.3     1  UNL1       -0.3851
     16 C         143.6913  134.0791  157.3960 C.3     1  UNL1        0.0286
     17 C         144.6524  133.0470  157.9068 C.3     1  UNL1        0.0025
     18 C         144.9784  131.8461  157.0692 C.3     1  UNL1        0.0002
     19 C         144.3434  131.6773  155.7208 C.3     1  UNL1        0.0025
     20 C         143.3823  132.7094  155.2100 C.3     1  UNL1        0.0286
     21 H         141.7286  135.0273  154.9750 H       1  UNL1        0.2103
     22 C         142.3105  143.6162  160.5975 C.3     1  UNL1        0.1007
     23 C         142.7154  143.6115  162.0419 C.ar    1  UNL1        0.0129
     24 C         143.9833  144.1827  162.6040 C.ar    1  UNL1        0.0176
     25 C         143.9750  143.9589  164.0872 C.ar    1  UNL1        0.0799
     26 N         142.7018  143.2493  164.4417 N.ar    1  UNL1       -0.3038
     27 C         141.9234  143.0346  163.1776 C.ar    1  UNL1        0.0772
     28 C         142.2810  142.8284  165.8186 C.ar    1  UNL1        0.0640
     29 C         140.8241  142.7525  166.1672 C.ar    1  UNL1        0.0175
     30 C         140.4033  142.3316  167.5441 C.ar    1  UNL1        0.0053
     31 C         141.4395  141.9866  168.5723 C.ar    1  UNL1        0.0715
     32 C         142.8964  142.0624  168.2238 C.ar    1  UNL1        0.0053
     33 C         143.3172  142.4834  166.8469 C.ar    1  UNL1        0.0175
     34 C         141.0186  141.5657  169.9492 C.3     1  UNL1        0.4186
     35 F         140.5978  141.1447  171.3261 F       1  UNL1       -0.1659
     36 F         142.4472  141.6226  170.4032 F       1  UNL1       -0.1659
     37 F         139.5902  141.5087  169.4952 F       1  UNL1       -0.1659
@<TRIPOS>BOND
     1     7     8    1
     2     8    13    1
     3    13    14    1
     4    14    15    1
     5    14    16    1
     6    16    17    1
     7    17    18    1
     8    18    19    1
     9    19    20    1
    10     8     9   am
    11     9    10    2
    12     9    11   am
    13    11     1    1
    14     1     2    1
    15     2     3    1
    16     3     4    1
    17     4    22    1
    18    22    23    1
    19    23    24   ar
    20    24    25   ar
    21    25    26   ar
    22    26    28    1
    23    28    29   ar
    24    29    30   ar
    25    30    31   ar
    26    31    34    1
    27    34    35    1
    28    34    36    1
    29    34    37    1
    30    31    32   ar
    31    32    33   ar
    32    26    27   ar
    33     4     5    1
    34     5     6    1
    35    20    14    1
    36     6     1    1
    37    27    23   ar
    38    33    28   ar
    39    15    21    1
    40    11    12    1
@<TRIPOS>MOLECULE
*****
 37 40 0 0 0
SMALL
GASTEIGER

@<TRIPOS>ATOM
      1 C         140.3774  138.2655  161.4774 C.3     1  UNL1        0.0758
      2 C         139.4449  138.5632  160.3407 C.3     1  UNL1        0.0370
      3 C         139.9731  138.6453  158.9391 C.3     1  UNL1        0.0741
      4 N         141.4337  138.4298  158.6743 N.3     1  UNL1       -0.2688
      5 C         142.3661  138.1321  159.8110 C.3     1  UNL1        0.0741
      6 C         141.8380  138.0500  161.2124 C.3     1  UNL1        0.0370
      7 C         138.7926  138.0191  165.6819 C.3     1  UNL1        0.1165
      8 N         139.6324  139.1898  165.2643 N.am    1  UNL1       -0.2601
      9 C         140.1607  139.2719  163.8627 C.2     1  UNL1        0.3040
     10 O         141.0004  140.4426  163.4453 O.2     1  UNL1       -0.2526
     11 N         139.8492  138.1834  162.8788 N.am    1  UNL1       -0.2903
     12 H         139.2980  137.4151  163.1529 H       1  UNL1        0.1509
     13 C         139.9439  140.2783  166.2482 C.3     1  UNL1        0.1217
     14 C         140.8147  139.9899  167.4350 C.3     1  UNL1        0.1066
     15 O         141.7985  139.7561  166.3272 O.3     1  UNL1       -0.3851
     16 C         139.5284  140.3239  168.1307 C.3     1  UNL1        0.0286
     17 C         139.4547  140.2883  169.6284 C.3     1  UNL1        0.0025
     18 C         140.6671  139.9187  170.4305 C.3     1  UNL1        0.0002
     19 C         141.9534  139.5847  169.7348 C.3     1  UNL1        0.0025
     20 C         142.0271  139.6203  168.2371 C.3     1  UNL1        0.0286
     21 H         141.3657  139.9094  165.4727 H       1  UNL1        0.2103
     22 C         141.9619  138.5119  157.2728 C.3     1  UNL1        0.1007
     23 C         142.7482  137.3703  156.6996 C.ar    1  UNL1        0.0129
     24 C         143.7555  137.4618  155.5919 C.ar    1  UNL1        0.0176
     25 C         144.2952  136.0848  155.3411 C.ar    1  UNL1        0.0799
     26 N         143.6213  135.1423  156.2940 N.ar    1  UNL1       -0.3038
     27 C         142.6653  135.9368  157.1335 C.ar    1  UNL1        0.0772
     28 C         143.8615  133.6649  156.3903 C.ar    1  UNL1        0.0640
     29 C         143.4538  132.7637  155.2626 C.ar    1  UNL1        0.0175
     30 C         143.6939  131.2861  155.3588 C.ar    1  UNL1        0.0053
     31 C         144.3417  130.7098  156.5828 C.ar    1  UNL1        0.0715
     32 C         144.7494  131.6108  157.7105 C.ar    1  UNL1        0.0053
     33 C         144.5093  133.0884  157.6143 C.ar    1  UNL1        0.0175
     34 C         144.5818  129.2322  156.6790 C.3     1  UNL1        0.4186
     35 F         144.8220  127.7547  156.7753 F       1  UNL1       -0.1659
     36 F         143.7460  129.1775  157.9234 F       1  UNL1       -0.1659
     37 F         145.4176  129.2871  155.4347 F       1  UNL1       -0.1659
@<TRIPOS>BOND
     1     7     8    1
     2     8    13    1
     3    13    14    1
     4    14    15    1
     5    14    16    1
     6    16    17    1
     7    17    18    1
     8    18    19    1
     9    19    20    1
    10     8     9   am
    11     9    10    2
    12     9    11   am
    13    11     1    1
    14     1     2    1
    15     2     3    1
    16     3     4    1
    17     4    22    1
    18    22    23    1
    19    23    24   ar
    20    24    25   ar
    21    25    26   ar
    22    26    28    1
    23    28    29   ar
    24    29    30   ar
    25    30    31   ar
    26    31    34    1
    27    34    35    1
    28    34    36    1
    29    34    37    1
    30    31    32   ar
    31    32    33   ar
    32    26    27   ar
    33     4     5    1
    34     5     6    1
    35    20    14    1
    36     6     1    1
    37    27    23   ar
    38    33    28   ar
    39    15    21    1
    40    11    12    1
@<TRIPOS>MOLECULE
*****
 37 40 0 0 0
SMALL
GASTEIGER

@<TRIPOS>ATOM
      1 C         142.3293  138.5869  158.3326 C.3     1  UNL1        0.0758
      2 C         143.0919  139.8300  157.9811 C.3     1  UNL1        0.0370
      3 C         143.7967  140.6060  159.0539 C.3     1  UNL1        0.0741
      4 N         143.7390  140.1391  160.4782 N.3     1  UNL1       -0.2688
      5 C         142.9765  138.8961  160.8297 C.3     1  UNL1        0.0741
      6 C         142.2716  138.1201  159.7569 C.3     1  UNL1        0.0370
      7 C         140.2146  136.2590  155.1140 C.3     1  UNL1        0.1165
      8 N         141.6073  135.8795  155.5221 N.am    1  UNL1       -0.2601
      9 C         142.3122  136.6555  156.5950 C.2     1  UNL1        0.3040
     10 O         143.7049  136.2760  157.0030 O.2     1  UNL1       -0.2526
     11 N         141.6245  137.8109  157.2598 N.am    1  UNL1       -0.2903
     12 H         140.7104  138.0600  156.9920 H       1  UNL1        0.1509
     13 C         142.2951  134.7241  154.8574 C.3     1  UNL1        0.1217
     14 C         141.5941  133.4037  154.7345 C.3     1  UNL1        0.1066
     15 O         141.8010  133.4517  156.2194 O.3     1  UNL1       -0.3851
     16 C         141.6307  133.8143  153.2923 C.3     1  UNL1        0.0286
     17 C         141.0382  132.9211  152.2430 C.3     1  UNL1        0.0025
     18 C         140.4090  131.6174  152.6359 C.3     1  UNL1        0.0002
     19 C         140.3724  131.2068  154.0782 C.3     1  UNL1        0.0025
     20 C         140.9650  132.1000  155.1275 C.3     1  UNL1        0.0286
     21 H         142.2573  134.2744  156.4559 H       1  UNL1        0.2103
     22 C         144.4439  140.9150  161.5510 C.3     1  UNL1        0.1007
     23 C         144.1166  140.6674  162.9938 C.ar    1  UNL1        0.0129
     24 C         144.6224  139.5294  163.8299 C.ar    1  UNL1        0.0176
     25 C         144.0444  139.6730  165.2067 C.ar    1  UNL1        0.0799
     26 N         143.1813  140.8997  165.2213 N.ar    1  UNL1       -0.3038
     27 C         143.2259  141.5143  163.8537 C.ar    1  UNL1        0.0772
     28 C         142.4092  141.4204  166.3972 C.ar    1  UNL1        0.0640
     29 C         140.9110  141.4731  166.3469 C.ar    1  UNL1        0.0175
     30 C         140.1388  141.9938  167.5228 C.ar    1  UNL1        0.0053
     31 C         140.8649  142.4618  168.7490 C.ar    1  UNL1        0.0715
     32 C         142.3631  142.4092  168.7994 C.ar    1  UNL1        0.0053
     33 C         143.1352  141.8885  167.6235 C.ar    1  UNL1        0.0175
     34 C         140.0927  142.9825  169.9249 C.3     1  UNL1        0.4186
     35 F         139.3205  143.5032  171.1008 F       1  UNL1       -0.1659
     36 F         139.2786  141.7228  169.9481 F       1  UNL1       -0.1659
     37 F         140.9068  144.2421  169.9016 F       1  UNL1       -0.1659
@<TRIPOS>BOND
     1     7     8    1
     2     8    13    1
     3    13    14    1
     4    14    15    1
     5    14    16    1
     6    16    17    1
     7    17    18    1
     8    18    19    1
     9    19    20    1
    10     8     9   am
    11     9    10    2
    12     9    11   am
    13    11     1    1
    14     1     2    1
    15     2     3    1
    16     3     4    1
    17     4    22    1
    18    22    23    1
    19    23    24   ar
    20    24    25   ar
    21    25    26   ar
    22    26    28    1
    23    28    29   ar
    24    29    30   ar
    25    30    31   ar
    26    31    34    1
    27    34    35    1
    28    34    36    1
    29    34    37    1
    30    31    32   ar
    31    32    33   ar
    32    26    27   ar
    33     4     5    1
    34     5     6    1
    35    20    14    1
    36     6     1    1
    37    27    23   ar
    38    33    28   ar
    39    15    21    1
    40    11    12    1
@<TRIPOS>MOLECULE
*****
 37 40 0 0 0
SMALL
GASTEIGER

@<TRIPOS>ATOM
      1 C         142.8910  140.3629  158.1690 C.3     1  UNL1        0.0758
      2 C         141.5312  140.9846  158.0476 C.3     1  UNL1        0.0370
      3 C         141.1401  142.1156  158.9520 C.3     1  UNL1        0.0741
      4 N         142.1088  142.6249  159.9778 N.3     1  UNL1       -0.2688
      5 C         143.4686  142.0032  160.0991 C.3     1  UNL1        0.0741
      6 C         143.8596  140.8723  159.1948 C.3     1  UNL1        0.0370
      7 C         144.0641  136.9701  155.4555 C.3     1  UNL1        0.1165
      8 N         143.3041  136.6920  156.7186 N.am    1  UNL1       -0.2601
      9 C         142.9131  137.8230  157.6231 C.2     1  UNL1        0.3040
     10 O         142.1530  137.5448  158.8860 O.2     1  UNL1       -0.2526
     11 N         143.2820  139.2320  157.2646 N.am    1  UNL1       -0.2903
     12 H         143.7808  139.4145  156.4356 H       1  UNL1        0.1509
     13 C         142.9351  135.2830  157.0770 C.3     1  UNL1        0.1217
     14 C         142.4273  134.3484  156.0194 C.3     1  UNL1        0.1066
     15 O         141.3158  135.3555  156.0326 O.3     1  UNL1       -0.3851
     16 C         143.7152  133.6659  156.3735 C.3     1  UNL1        0.0286
     17 C         144.1092  132.3985  155.6746 C.3     1  UNL1        0.0025
     18 C         143.2153  131.8137  154.6215 C.3     1  UNL1        0.0002
     19 C         141.9274  132.4962  154.2674 C.3     1  UNL1        0.0025
     20 C         141.5334  133.7636  154.9664 C.3     1  UNL1        0.0286
     21 H         141.5101  136.0429  156.6888 H       1  UNL1        0.2103
     22 C         141.7178  143.7558  160.8822 C.3     1  UNL1        0.1007
     23 C         140.8452  143.4956  162.0742 C.ar    1  UNL1        0.0129
     24 C         139.4120  143.9115  162.2254 C.ar    1  UNL1        0.0176
     25 C         138.9336  143.4467  163.5690 C.ar    1  UNL1        0.0799
     26 N         140.0714  142.7435  164.2482 N.ar    1  UNL1       -0.3038
     27 C         141.2527  142.7737  163.3244 C.ar    1  UNL1        0.0772
     28 C         140.0341  142.1196  165.6118 C.ar    1  UNL1        0.0640
     29 C         139.5121  140.7240  165.7840 C.ar    1  UNL1        0.0175
     30 C         139.4748  140.1001  167.1476 C.ar    1  UNL1        0.0053
     31 C         139.9596  140.8718  168.3390 C.ar    1  UNL1        0.0715
     32 C         140.4817  142.2674  168.1668 C.ar    1  UNL1        0.0053
     33 C         140.5190  142.8913  166.8032 C.ar    1  UNL1        0.0175
     34 C         139.9223  140.2479  169.7026 C.3     1  UNL1        0.4186
     35 F         139.8851  139.6240  171.0662 F       1  UNL1       -0.1659
     36 F         138.7248  141.0812  170.0511 F       1  UNL1       -0.1659
     37 F         141.1199  139.4146  169.3540 F       1  UNL1       -0.1659
@<TRIPOS>BOND
     1     7     8    1
     2     8    13    1
     3    13    14    1
     4    14    15    1
     5    14    16    1
     6    16    17    1
     7    17    18    1
     8    18    19    1
     9    19    20    1
    10     8     9   am
    11     9    10    2
    12     9    11   am
    13    11     1    1
    14     1     2    1
    15     2     3    1
    16     3     4    1
    17     4    22    1
    18    22    23    1
    19    23    24   ar
    20    24    25   ar
    21    25    26   ar
    22    26    28    1
    23    28    29   ar
    24    29    30   ar
    25    30    31   ar
    26    31    34    1
    27    34    35    1
    28    34    36    1
    29    34    37    1
    30    31    32   ar
    31    32    33   ar
    32    26    27   ar
    33     4     5    1
    34     5     6    1
    35    20    14    1
    36     6     1    1
    37    27    23   ar
    38    33    28   ar
    39    15    21    1
    40    11    12    1
@<TRIPOS>MOLECULE
*****
 37 40 0 0 0
SMALL
GASTEIGER

@<TRIPOS>ATOM
      1 C         141.7009  139.6312  158.6209 C.3     1  UNL1        0.0758
      2 C         142.7999  140.6418  158.7665 C.3     1  UNL1        0.0370
      3 C         143.6901  140.6131  159.9735 C.3     1  UNL1        0.0741
      4 N         143.4812  139.5739  161.0348 N.3     1  UNL1       -0.2688
      5 C         142.3822  138.5634  160.8891 C.3     1  UNL1        0.0741
      6 C         141.4921  138.5921  159.6822 C.3     1  UNL1        0.0370
      7 C         139.0306  139.7174  154.9997 C.3     1  UNL1        0.1165
      8 N         138.7874  140.6687  156.1338 N.am    1  UNL1       -0.2601
      9 C         139.6775  140.6399  157.3409 C.2     1  UNL1        0.3040
     10 O         139.4342  141.5912  158.4749 O.2     1  UNL1       -0.2526
     11 N         140.8108  139.6600  157.4139 N.am    1  UNL1       -0.2903
     12 H         140.9704  139.0357  156.6695 H       1  UNL1        0.1509
     13 C         137.6541  141.6486  156.0608 C.3     1  UNL1        0.1217
     14 C         136.2393  141.1553  155.9901 C.3     1  UNL1        0.1066
     15 O         136.6418  140.6017  157.3248 O.3     1  UNL1       -0.3851
     16 C         136.3282  141.8802  154.6799 C.3     1  UNL1        0.0286
     17 C         135.1420  141.9195  153.7627 C.3     1  UNL1        0.0025
     18 C         133.8670  141.2339  154.1555 C.3     1  UNL1        0.0002
     19 C         133.7782  140.5090  155.4657 C.3     1  UNL1        0.0025
     20 C         134.9643  140.4697  156.3830 C.3     1  UNL1        0.0286
     21 H         137.5612  140.8473  157.5128 H       1  UNL1        0.2103
     22 C         144.3713  139.5451  162.2418 C.3     1  UNL1        0.1007
     23 C         144.1965  140.5658  163.3271 C.ar    1  UNL1        0.0129
     24 C         145.0370  141.7918  163.5280 C.ar    1  UNL1        0.0176
     25 C         144.5105  142.5234  164.7270 C.ar    1  UNL1        0.0799
     26 N         143.3446  141.7493  165.2672 N.ar    1  UNL1       -0.3038
     27 C         143.1506  140.5395  164.4019 C.ar    1  UNL1        0.0772
     28 C         142.5179  142.1201  166.4626 C.ar    1  UNL1        0.0640
     29 C         141.0796  142.5084  166.2886 C.ar    1  UNL1        0.0175
     30 C         140.2529  142.8792  167.4841 C.ar    1  UNL1        0.0053
     31 C         140.8646  142.8618  168.8535 C.ar    1  UNL1        0.0715
     32 C         142.3029  142.4735  169.0277 C.ar    1  UNL1        0.0053
     33 C         143.1296  142.1027  167.8322 C.ar    1  UNL1        0.0175
     34 C         140.0379  143.2326  170.0490 C.3     1  UNL1        0.4186
     35 F         139.2112  143.6034  171.2445 F       1  UNL1       -0.1659
     36 F         139.5577  141.8156  170.1565 F       1  UNL1       -0.1659
     37 F         140.5181  144.6495  169.9415 F       1  UNL1       -0.1659
@<TRIPOS>BOND
     1     7     8    1
     2     8    13    1
     3    13    14    1
     4    14    15    1
     5    14    16    1
     6    16    17    1
     7    17    18    1
     8    18    19    1
     9    19    20    1
    10     8     9   am
    11     9    10    2
    12     9    11   am
    13    11     1    1
    14     1     2    1
    15     2     3    1
    16     3     4    1
    17     4    22    1
    18    22    23    1
    19    23    24   ar
    20    24    25   ar
    21    25    26   ar
    22    26    28    1
    23    28    29   ar
    24    29    30   ar
    25    30    31   ar
    26    31    34    1
    27    34    35    1
    28    34    36    1
    29    34    37    1
    30    31    32   ar
    31    32    33   ar
    32    26    27   ar
    33     4     5    1
    34     5     6    1
    35    20    14    1
    36     6     1    1
    37    27    23   ar
    38    33    28   ar
    39    15    21    1
    40    11    12    1
@<TRIPOS>MOLECULE
*****
 37 40 0 0 0
SMALL
GASTEIGER

@<TRIPOS>ATOM
      1 C         138.6728  140.1035  159.9809 C.3     1  UNL1        0.0758
      2 C         139.4459  138.8183  160.0122 C.3     1  UNL1        0.0370
      3 C         139.5097  138.0121  161.2756 C.3     1  UNL1        0.0741
      4 N         138.8005  138.4910  162.5075 N.3     1  UNL1       -0.2688
      5 C         138.0275  139.7761  162.4761 C.3     1  UNL1        0.0741
      6 C         137.9636  140.5823  161.2129 C.3     1  UNL1        0.0370
      7 C         138.4812  142.5219  156.1908 C.3     1  UNL1        0.1165
      8 N         139.5660  142.7833  157.1934 N.am    1  UNL1       -0.2601
      9 C         139.6299  141.9772  158.4567 C.2     1  UNL1        0.3040
     10 O         140.7146  142.2387  159.4592 O.2     1  UNL1       -0.2526
     11 N         138.6090  140.9096  158.7176 N.am    1  UNL1       -0.2903
     12 H         137.8970  140.7380  158.0596 H       1  UNL1        0.1509
     13 C         140.5869  143.8509  156.9325 C.3     1  UNL1        0.1217
     14 C         140.1501  145.2692  156.7140 C.3     1  UNL1        0.1066
     15 O         139.9279  145.1531  158.1929 O.3     1  UNL1       -0.3851
     16 C         140.5239  144.8927  155.3110 C.3     1  UNL1        0.0286
     17 C         140.3837  145.8941  154.2031 C.3     1  UNL1        0.0025
     18 C         139.8697  147.2721  154.4982 C.3     1  UNL1        0.0002
     19 C         139.4959  147.6485  155.9012 C.3     1  UNL1        0.0025
     20 C         139.6361  146.6471  157.0091 C.3     1  UNL1        0.0286
     21 H         140.1744  144.2625  158.4879 H       1  UNL1        0.2103
     22 C         138.8643  137.6849  163.7708 C.3     1  UNL1        0.1007
     23 C         138.9712  138.3768  165.0974 C.ar    1  UNL1        0.0129
     24 C         137.9428  138.3540  166.1891 C.ar    1  UNL1        0.0176
     25 C         138.4614  139.1761  167.3317 C.ar    1  UNL1        0.0799
     26 N         139.8103  139.7069  166.9460 N.ar    1  UNL1       -0.3038
     27 C         140.1254  139.2129  165.5652 C.ar    1  UNL1        0.0772
     28 C         140.6897  140.5787  167.7926 C.ar    1  UNL1        0.0640
     29 C         142.0448  140.0929  168.2141 C.ar    1  UNL1        0.0175
     30 C         142.9242  140.9647  169.0607 C.ar    1  UNL1        0.0053
     31 C         142.4485  142.3222  169.4858 C.ar    1  UNL1        0.0715
     32 C         141.0934  142.8080  169.0644 C.ar    1  UNL1        0.0053
     33 C         140.2140  141.9363  168.2178 C.ar    1  UNL1        0.0175
     34 C         143.3279  143.1939  170.3324 C.3     1  UNL1        0.4186
     35 F         144.2073  144.0657  171.1791 F       1  UNL1       -0.1659
     36 F         142.1898  144.1511  170.5290 F       1  UNL1       -0.1659
     37 F         144.4659  142.2368  170.1358 F       1  UNL1       -0.1659
@<TRIPOS>BOND
     1     7     8    1
     2     8    13    1
     3    13    14    1
     4    14    15    1
     5    14    16    1
     6    16    17    1
     7    17    18    1
     8    18    19    1
     9    19    20    1
    10     8     9   am
    11     9    10    2
    12     9    11   am
    13    11     1    1
    14     1     2    1
    15     2     3    1
    16     3     4    1
    17     4    22    1
    18    22    23    1
    19    23    24   ar
    20    24    25   ar
    21    25    26   ar
    22    26    28    1
    23    28    29   ar
    24    29    30   ar
    25    30    31   ar
    26    31    34    1
    27    34    35    1
    28    34    36    1
    29    34    37    1
    30    31    32   ar
    31    32    33   ar
    32    26    27   ar
    33     4     5    1
    34     5     6    1
    35    20    14    1
    36     6     1    1
    37    27    23   ar
    38    33    28   ar
    39    15    21    1
    40    11    12    1
@<TRIPOS>MOLECULE
*****
 37 40 0 0 0
SMALL
GASTEIGER

@<TRIPOS>ATOM
      1 C         142.6749  139.6425  161.7888 C.3     1  UNL1        0.0758
      2 C         141.9896  138.3936  161.3189 C.3     1  UNL1        0.0370
      3 C         141.9096  138.0884  159.8524 C.3     1  UNL1        0.0741
      4 N         142.5148  139.0322  158.8559 N.3     1  UNL1       -0.2688
      5 C         143.2001  140.2810  159.3258 C.3     1  UNL1        0.0741
      6 C         143.2801  140.5861  160.7922 C.3     1  UNL1        0.0370
      7 C         142.9150  140.5576  166.1882 C.3     1  UNL1        0.1165
      8 N         141.6992  140.9553  165.4046 N.am    1  UNL1       -0.2601
      9 C         141.6192  140.6502  163.9381 C.2     1  UNL1        0.3040
     10 O         140.4034  141.0479  163.1547 O.2     1  UNL1       -0.2526
     11 N         142.7549  139.9475  163.2552 N.am    1  UNL1       -0.2903
     12 H         143.5528  139.6866  163.7695 H       1  UNL1        0.1509
     13 C         140.5635  141.6580  166.0876 C.3     1  UNL1        0.1217
     14 C         140.1298  141.2270  167.4573 C.3     1  UNL1        0.1066
     15 O         139.8828  139.9590  166.6948 O.3     1  UNL1       -0.3851
     16 C         140.5274  142.6446  167.7441 C.3     1  UNL1        0.0286
     17 C         140.4056  143.1907  169.1357 C.3     1  UNL1        0.0025
     18 C         139.8861  142.3193  170.2406 C.3     1  UNL1        0.0002
     19 C         139.4884  140.9017  169.9538 C.3     1  UNL1        0.0025
     20 C         139.6103  140.3556  168.5622 C.3     1  UNL1        0.0286
     21 H         140.1246  140.0889  165.7645 H       1  UNL1        0.2103
     22 C         142.4348  138.7271  157.3894 C.3     1  UNL1        0.1007
     23 C         142.9935  137.4397  156.8596 C.ar    1  UNL1        0.0129
     24 C         143.8050  137.2796  155.6083 C.ar    1  UNL1        0.0176
     25 C         144.1518  135.8274  155.4634 C.ar    1  UNL1        0.0799
     26 N         143.5546  135.0901  156.6253 N.ar    1  UNL1       -0.3038
     27 C         142.8388  136.0866  157.4882 C.ar    1  UNL1        0.0772
     28 C         143.6556  133.6153  156.8796 C.ar    1  UNL1        0.0640
     29 C         144.7940  133.0702  157.6901 C.ar    1  UNL1        0.0175
     30 C         144.8950  131.5953  157.9444 C.ar    1  UNL1        0.0053
     31 C         143.8576  130.6656  157.3882 C.ar    1  UNL1        0.0715
     32 C         142.7192  131.2106  156.5777 C.ar    1  UNL1        0.0053
     33 C         142.6182  132.6855  156.3234 C.ar    1  UNL1        0.0175
     34 C         143.9587  129.1907  157.6425 C.3     1  UNL1        0.4186
     35 F         144.0597  127.7159  157.8968 F       1  UNL1       -0.1659
     36 F         143.0733  128.9263  156.4608 F       1  UNL1       -0.1659
     37 F         144.8440  129.4552  158.8240 F       1  UNL1       -0.1659
@<TRIPOS>BOND
     1     7     8    1
     2     8    13    1
     3    13    14    1
     4    14    15    1
     5    14    16    1
     6    16    17    1
     7    17    18    1
     8    18    19    1
     9    19    20    1
    10     8     9   am
    11     9    10    2
    12     9    11   am
    13    11     1    1
    14     1     2    1
    15     2     3    1
    16     3     4    1
    17     4    22    1
    18    22    23    1
    19    23    24   ar
    20    24    25   ar
    21    25    26   ar
    22    26    28    1
    23    28    29   ar
    24    29    30   ar
    25    30    31   ar
    26    31    34    1
    27    34    35    1
    28    34    36    1
    29    34    37    1
    30    31    32   ar
    31    32    33   ar
    32    26    27   ar
    33     4     5    1
    34     5     6    1
    35    20    14    1
    36     6     1    1
    37    27    23   ar
    38    33    28   ar
    39    15    21    1
    40    11    12    1
