@<TRIPOS>MOLECULE
*****
 34 38 0 0 0
SMALL
GASTEIGER

@<TRIPOS>ATOM
      1 C         140.1652  144.7872  159.5755 C.3     1  UNL1        0.1035
      2 C         139.9700  143.5140  160.3442 C.3     1  UNL1        0.0933
      3 N         140.4072  144.2059  161.6012 N.3     1  UNL1       -0.2711
      4 C         140.6024  145.4791  160.8325 C.3     1  UNL1        0.0933
      5 C         140.5783  143.7950  163.0336 C.3     1  UNL1        0.0576
      6 C         139.5032  144.0988  164.0345 C.3     1  UNL1        0.0163
      7 C         139.6742  143.6879  165.4670 C.3     1  UNL1        0.0057
      8 C         140.9204  142.9732  165.8985 C.3     1  UNL1        0.0225
      9 C         141.9955  142.6693  164.8976 C.3     1  UNL1        0.0057
     10 C         141.8244  143.0802  163.4651 C.3     1  UNL1        0.0163
     11 C         141.0914  142.5622  167.3310 C.ar    1  UNL1       -0.0193
     12 C         140.2621  143.2084  168.4008 C.ar    1  UNL1       -0.0010
     13 C         140.4331  142.7975  169.8332 C.ar    1  UNL1        0.0399
     14 C         141.4336  141.7404  170.1958 C.ar    1  UNL1        0.1764
     15 C         142.2630  141.0941  169.1260 C.ar    1  UNL1        0.1761
     16 C         142.0919  141.5050  167.6936 C.ar    1  UNL1        0.0359
     17 O         143.1626  140.0883  169.7811 O.3     1  UNL1       -0.4346
     18 C         142.8891  140.1129  171.2557 C.3     1  UNL1        0.4294
     19 O         141.8205  141.1339  171.5121 O.3     1  UNL1       -0.4346
     20 O         142.5752  145.2917  157.8617 O.2     1  UNL1       -0.2733
     21 C         141.1991  145.4504  157.2862 C.2     1  UNL1        0.2426
     22 N         139.9941  145.1981  158.1431 N.am    1  UNL1       -0.3018
     23 H         139.0909  145.3023  157.7654 H       1  UNL1        0.1495
     24 C         141.0281  145.8614  155.8537 C.3     1  UNL1        0.1759
     25 N         140.8212  147.3061  155.5075 N.am    1  UNL1       -0.2931
     26 C         139.4579  147.7964  155.1190 C.2     1  UNL1        0.2462
     27 O         138.3015  146.8420  155.0768 O.2     1  UNL1       -0.2701
     28 H         141.5802  147.9326  155.5352 H       1  UNL1        0.1502
     29 C         139.2510  149.2412  154.7729 C.ar    1  UNL1        0.0534
     30 C         139.6683  149.7573  153.4277 C.ar    1  UNL1        0.0045
     31 C         139.4614  151.2022  153.0816 C.ar    1  UNL1        0.0001
     32 C         138.8372  152.1308  154.0806 C.ar    1  UNL1        0.0000
     33 C         138.4200  151.6147  155.4258 C.ar    1  UNL1        0.0001
     34 C         138.6268  150.1699  155.7719 C.ar    1  UNL1        0.0045
@<TRIPOS>BOND
     1    20    21    2
     2    21    24    1
     3    24    25    1
     4    25    26   am
     5    26    27    2
     6    26    29    1
     7    29    30   ar
     8    30    31   ar
     9    31    32   ar
    10    32    33   ar
    11    33    34   ar
    12    21    22   am
    13    22     1    1
    14     1     2    1
    15     2     3    1
    16     5     3    1
    17     5     6    1
    18     6     7    1
    19     7     8    1
    20     8    11    1
    21    11    12   ar
    22    12    13   ar
    23    13    14   ar
    24    14    15   ar
    25    15    16   ar
    26    15    17    1
    27    17    18    1
    28    18    19    1
    29     8     9    1
    30     9    10    1
    31     3     4    1
    32    34    29   ar
    33     4     1    1
    34    10     5    1
    35    16    11   ar
    36    19    14    1
    37    25    28    1
    38    22    23    1
@<TRIPOS>MOLECULE
*****
 34 38 0 0 0
SMALL
GASTEIGER

@<TRIPOS>ATOM
      1 C         142.4986  137.6354  159.1977 C.3     1  UNL1        0.1035
      2 C         141.4320  138.4195  159.9031 C.3     1  UNL1        0.0933
      3 N         142.2928  138.4873  161.1296 N.3     1  UNL1       -0.2711
      4 C         143.3594  137.7032  160.4242 C.3     1  UNL1        0.0933
      5 C         142.1474  139.0896  162.4956 C.3     1  UNL1        0.0576
      6 C         142.5162  140.5253  162.7253 C.3     1  UNL1        0.0163
      7 C         142.3708  141.1277  164.0913 C.3     1  UNL1        0.0057
      8 C         141.8566  140.2944  165.2276 C.3     1  UNL1        0.0225
      9 C         141.4877  138.8587  164.9979 C.3     1  UNL1        0.0057
     10 C         141.6331  138.2563  163.6319 C.3     1  UNL1        0.0163
     11 C         141.7111  140.8968  166.5937 C.ar    1  UNL1       -0.0193
     12 C         140.3938  140.8277  167.3075 C.ar    1  UNL1       -0.0010
     13 C         140.2484  141.4300  168.6735 C.ar    1  UNL1        0.0399
     14 C         141.4204  142.1016  169.3256 C.ar    1  UNL1        0.1764
     15 C         142.7378  142.1708  168.6118 C.ar    1  UNL1        0.1761
     16 C         142.8833  141.5684  167.2458 C.ar    1  UNL1        0.0359
     17 O         143.7087  142.8916  169.4994 O.3     1  UNL1       -0.4346
     18 C         142.9912  143.2680  170.7618 C.3     1  UNL1        0.4294
     19 O         141.5770  142.7797  170.6544 O.3     1  UNL1       -0.4346
     20 O         143.8770  139.1713  157.0204 O.2     1  UNL1       -0.2733
     21 C         143.3332  137.8011  156.7430 C.2     1  UNL1        0.2426
     22 N         142.6440  137.0331  157.8317 N.am    1  UNL1       -0.3018
     23 H         142.2871  136.1339  157.6497 H       1  UNL1        0.1495
     24 C         143.4787  137.1988  155.3769 C.3     1  UNL1        0.1759
     25 N         143.9569  135.7849  155.2276 N.am    1  UNL1       -0.2931
     26 C         142.9961  134.6461  155.4005 C.2     1  UNL1        0.2462
     27 O         141.5572  134.9212  155.7227 O.2     1  UNL1       -0.2701
     28 H         144.9013  135.6044  155.0161 H       1  UNL1        0.1502
     29 C         143.4743  133.2322  155.2513 C.ar    1  UNL1        0.0534
     30 C         144.4607  132.6669  156.2296 C.ar    1  UNL1        0.0045
     31 C         144.9389  131.2530  156.0803 C.ar    1  UNL1        0.0001
     32 C         144.4306  130.4044  154.9526 C.ar    1  UNL1        0.0000
     33 C         143.4441  130.9698  153.9743 C.ar    1  UNL1        0.0001
     34 C         142.9659  132.3837  154.1235 C.ar    1  UNL1        0.0045
@<TRIPOS>BOND
     1    20    21    2
     2    21    24    1
     3    24    25    1
     4    25    26   am
     5    26    27    2
     6    26    29    1
     7    29    30   ar
     8    30    31   ar
     9    31    32   ar
    10    32    33   ar
    11    33    34   ar
    12    21    22   am
    13    22     1    1
    14     1     2    1
    15     2     3    1
    16     5     3    1
    17     5     6    1
    18     6     7    1
    19     7     8    1
    20     8    11    1
    21    11    12   ar
    22    12    13   ar
    23    13    14   ar
    24    14    15   ar
    25    15    16   ar
    26    15    17    1
    27    17    18    1
    28    18    19    1
    29     8     9    1
    30     9    10    1
    31     3     4    1
    32    34    29   ar
    33     4     1    1
    34    10     5    1
    35    16    11   ar
    36    19    14    1
    37    25    28    1
    38    22    23    1
@<TRIPOS>MOLECULE
*****
 34 38 0 0 0
SMALL
GASTEIGER

@<TRIPOS>ATOM
      1 C         140.8784  145.5081  159.3321 C.3     1  UNL1        0.1035
      2 C         140.1053  145.7484  160.5948 C.3     1  UNL1        0.0933
      3 N         140.6799  144.4950  161.1853 N.3     1  UNL1       -0.2711
      4 C         141.4530  144.2547  159.9226 C.3     1  UNL1        0.0933
      5 C         140.5396  143.7786  162.4957 C.3     1  UNL1        0.0576
      6 C         139.3048  142.9771  162.7837 C.3     1  UNL1        0.0163
      7 C         139.1644  142.2607  164.0941 C.3     1  UNL1        0.0057
      8 C         140.2588  142.3458  165.1164 C.3     1  UNL1        0.0225
      9 C         141.4936  143.1473  164.8283 C.3     1  UNL1        0.0057
     10 C         141.6340  143.8637  163.5180 C.3     1  UNL1        0.0163
     11 C         140.1184  141.6294  166.4268 C.ar    1  UNL1       -0.0193
     12 C         139.2961  140.3779  166.5130 C.ar    1  UNL1       -0.0010
     13 C         139.1557  139.6615  167.8233 C.ar    1  UNL1        0.0399
     14 C         139.8377  140.1966  169.0475 C.ar    1  UNL1        0.1764
     15 C         140.6600  141.4481  168.9613 C.ar    1  UNL1        0.1761
     16 C         140.8004  142.1645  167.6510 C.ar    1  UNL1        0.0359
     17 O         141.2115  141.7354  170.3264 O.3     1  UNL1       -0.4346
     18 C         140.7300  140.6613  171.2562 C.3     1  UNL1        0.4294
     19 O         139.8809  139.7103  170.4658 O.3     1  UNL1       -0.4346
     20 O         139.5064  144.4431  156.8861 O.2     1  UNL1       -0.2733
     21 C         140.3327  145.6919  156.7987 C.2     1  UNL1        0.2426
     22 N         141.0187  146.2245  158.0217 N.am    1  UNL1       -0.3018
     23 H         141.5610  147.0441  157.9644 H       1  UNL1        0.1495
     24 C         140.4730  146.4083  155.4882 C.3     1  UNL1        0.1759
     25 N         139.9267  147.7963  155.3300 N.am    1  UNL1       -0.2931
     26 C         140.1199  148.5356  154.0393 C.2     1  UNL1        0.2462
     27 O         140.8592  147.8870  152.9068 O.2     1  UNL1       -0.2701
     28 H         139.4415  148.2221  156.0733 H       1  UNL1        0.1502
     29 C         139.5736  149.9237  153.8811 C.ar    1  UNL1        0.0534
     30 C         139.4868  150.5447  152.5184 C.ar    1  UNL1        0.0045
     31 C         138.9405  151.9327  152.3603 C.ar    1  UNL1        0.0001
     32 C         138.4811  152.6997  153.5648 C.ar    1  UNL1        0.0000
     33 C         138.5679  152.0787  154.9274 C.ar    1  UNL1        0.0001
     34 C         139.1142  150.6907  155.0856 C.ar    1  UNL1        0.0045
@<TRIPOS>BOND
     1    20    21    2
     2    21    24    1
     3    24    25    1
     4    25    26   am
     5    26    27    2
     6    26    29    1
     7    29    30   ar
     8    30    31   ar
     9    31    32   ar
    10    32    33   ar
    11    33    34   ar
    12    21    22   am
    13    22     1    1
    14     1     2    1
    15     2     3    1
    16     5     3    1
    17     5     6    1
    18     6     7    1
    19     7     8    1
    20     8    11    1
    21    11    12   ar
    22    12    13   ar
    23    13    14   ar
    24    14    15   ar
    25    15    16   ar
    26    15    17    1
    27    17    18    1
    28    18    19    1
    29     8     9    1
    30     9    10    1
    31     3     4    1
    32    34    29   ar
    33     4     1    1
    34    10     5    1
    35    16    11   ar
    36    19    14    1
    37    25    28    1
    38    22    23    1
@<TRIPOS>MOLECULE
*****
 34 38 0 0 0
SMALL
GASTEIGER

@<TRIPOS>ATOM
      1 C         139.9534  144.5257  158.9354 C.3     1  UNL1        0.1035
      2 C         140.2987  145.1382  160.2604 C.3     1  UNL1        0.0933
      3 N         139.9800  143.8413  160.9432 N.3     1  UNL1       -0.2711
      4 C         139.6347  143.2287  159.6182 C.3     1  UNL1        0.0933
      5 C         139.9987  143.3572  162.3628 C.3     1  UNL1        0.0576
      6 C         141.2824  142.8816  162.9760 C.3     1  UNL1        0.0163
      7 C         141.3012  142.3976  164.3956 C.3     1  UNL1        0.0057
      8 C         140.0364  142.3892  165.2020 C.3     1  UNL1        0.0225
      9 C         138.7528  142.8648  164.5887 C.3     1  UNL1        0.0057
     10 C         138.7339  143.3489  163.1691 C.3     1  UNL1        0.0163
     11 C         140.0552  141.9051  166.6217 C.ar    1  UNL1       -0.0193
     12 C         139.5407  140.5360  166.9541 C.ar    1  UNL1       -0.0010
     13 C         139.5595  140.0520  168.3738 C.ar    1  UNL1        0.0399
     14 C         140.0929  140.9371  169.4609 C.ar    1  UNL1        0.1764
     15 C         140.6075  142.3063  169.1285 C.ar    1  UNL1        0.1761
     16 C         140.5887  142.7903  167.7089 C.ar    1  UNL1        0.0359
     17 O         141.0698  142.9497  170.4022 O.3     1  UNL1       -0.4346
     18 C         140.8409  141.9781  171.5219 C.3     1  UNL1        0.4294
     19 O         140.2371  140.7342  170.9401 O.3     1  UNL1       -0.4346
     20 O         142.3106  144.0246  157.1487 O.2     1  UNL1       -0.2733
     21 C         141.1133  144.7591  156.6224 C.2     1  UNL1        0.2426
     22 N         139.9347  145.0097  157.5158 N.am    1  UNL1       -0.3018
     23 H         139.1488  145.4918  157.1704 H       1  UNL1        0.1495
     24 C         141.0946  145.2431  155.2027 C.3     1  UNL1        0.1759
     25 N         140.9174  146.7037  154.9105 N.am    1  UNL1       -0.2931
     26 C         139.5517  147.3208  154.9736 C.2     1  UNL1        0.2462
     27 O         138.3632  146.4773  155.3287 O.2     1  UNL1       -0.2701
     28 H         141.6974  147.2573  154.6774 H       1  UNL1        0.1502
     29 C         139.3744  148.7813  154.6814 C.ar    1  UNL1        0.0534
     30 C         138.6923  149.6686  155.6801 C.ar    1  UNL1        0.0045
     31 C         138.5152  151.1292  155.3879 C.ar    1  UNL1        0.0001
     32 C         139.0200  151.7025  154.0970 C.ar    1  UNL1        0.0000
     33 C         139.7021  150.8152  153.0983 C.ar    1  UNL1        0.0001
     34 C         139.8794  149.3546  153.3904 C.ar    1  UNL1        0.0045
@<TRIPOS>BOND
     1    20    21    2
     2    21    24    1
     3    24    25    1
     4    25    26   am
     5    26    27    2
     6    26    29    1
     7    29    30   ar
     8    30    31   ar
     9    31    32   ar
    10    32    33   ar
    11    33    34   ar
    12    21    22   am
    13    22     1    1
    14     1     2    1
    15     2     3    1
    16     5     3    1
    17     5     6    1
    18     6     7    1
    19     7     8    1
    20     8    11    1
    21    11    12   ar
    22    12    13   ar
    23    13    14   ar
    24    14    15   ar
    25    15    16   ar
    26    15    17    1
    27    17    18    1
    28    18    19    1
    29     8     9    1
    30     9    10    1
    31     3     4    1
    32    34    29   ar
    33     4     1    1
    34    10     5    1
    35    16    11   ar
    36    19    14    1
    37    25    28    1
    38    22    23    1
@<TRIPOS>MOLECULE
*****
 34 38 0 0 0
SMALL
GASTEIGER

@<TRIPOS>ATOM
      1 C         142.4974  138.1084  159.2853 C.3     1  UNL1        0.1035
      2 C         142.4076  139.5257  159.7685 C.3     1  UNL1        0.0933
      3 N         142.3288  139.0379  161.1847 N.3     1  UNL1       -0.2711
      4 C         142.4185  137.6207  160.7016 C.3     1  UNL1        0.0933
      5 C         142.2096  139.6951  162.5278 C.3     1  UNL1        0.0576
      6 C         143.4285  139.8829  163.3816 C.3     1  UNL1        0.0163
      7 C         143.3095  140.5401  164.7247 C.3     1  UNL1        0.0057
      8 C         141.9714  141.0094  165.2140 C.3     1  UNL1        0.0225
      9 C         140.7525  140.8216  164.3602 C.3     1  UNL1        0.0057
     10 C         140.8716  140.1644  163.0171 C.3     1  UNL1        0.0163
     11 C         141.8523  141.6666  166.5572 C.ar    1  UNL1       -0.0193
     12 C         140.5221  142.1753  167.0279 C.ar    1  UNL1       -0.0010
     13 C         140.4030  142.8324  168.3710 C.ar    1  UNL1        0.0399
     14 C         141.6142  142.9809  169.2434 C.ar    1  UNL1        0.1764
     15 C         142.9445  142.4723  168.7726 C.ar    1  UNL1        0.1761
     16 C         143.0636  141.8151  167.4295 C.ar    1  UNL1        0.0359
     17 O         143.9552  142.7574  169.8436 O.3     1  UNL1       -0.4346
     18 C         143.2496  143.4424  170.9763 C.3     1  UNL1        0.4294
     19 O         141.8028  143.5805  170.6053 O.3     1  UNL1       -0.4346
     20 O         140.0574  137.7205  157.5836 O.2     1  UNL1       -0.2733
     21 C         141.3965  137.2573  157.0914 C.2     1  UNL1        0.2426
     22 N         142.6165  137.4513  157.9422 N.am    1  UNL1       -0.3018
     23 H         143.4954  137.1473  157.6192 H       1  UNL1        0.1495
     24 C         141.5156  136.6001  155.7482 C.3     1  UNL1        0.1759
     25 N         141.3698  135.1122  155.6256 N.am    1  UNL1       -0.2931
     26 C         142.4800  134.2102  156.0770 C.2     1  UNL1        0.2462
     27 O         143.7360  134.7959  156.6508 O.2     1  UNL1       -0.2701
     28 H         140.5454  134.7278  155.2490 H       1  UNL1        0.1502
     29 C         142.3341  132.7223  155.9544 C.ar    1  UNL1        0.0534
     30 C         143.2191  131.8135  156.7550 C.ar    1  UNL1        0.0045
     31 C         143.0731  130.3256  156.6324 C.ar    1  UNL1        0.0001
     32 C         142.0424  129.7466  155.7093 C.ar    1  UNL1        0.0000
     33 C         141.1574  130.6554  154.9087 C.ar    1  UNL1        0.0001
     34 C         141.3033  132.1433  155.0312 C.ar    1  UNL1        0.0045
@<TRIPOS>BOND
     1    20    21    2
     2    21    24    1
     3    24    25    1
     4    25    26   am
     5    26    27    2
     6    26    29    1
     7    29    30   ar
     8    30    31   ar
     9    31    32   ar
    10    32    33   ar
    11    33    34   ar
    12    21    22   am
    13    22     1    1
    14     1     2    1
    15     2     3    1
    16     5     3    1
    17     5     6    1
    18     6     7    1
    19     7     8    1
    20     8    11    1
    21    11    12   ar
    22    12    13   ar
    23    13    14   ar
    24    14    15   ar
    25    15    16   ar
    26    15    17    1
    27    17    18    1
    28    18    19    1
    29     8     9    1
    30     9    10    1
    31     3     4    1
    32    34    29   ar
    33     4     1    1
    34    10     5    1
    35    16    11   ar
    36    19    14    1
    37    25    28    1
    38    22    23    1
@<TRIPOS>MOLECULE
*****
 34 38 0 0 0
SMALL
GASTEIGER

@<TRIPOS>ATOM
      1 C         142.6240  138.0675  158.8794 C.3     1  UNL1        0.1035
      2 C         142.2440  139.3520  159.5546 C.3     1  UNL1        0.0933
      3 N         142.5103  138.7277  160.8922 N.3     1  UNL1       -0.2711
      4 C         142.8904  137.4433  160.2171 C.3     1  UNL1        0.0933
      5 C         142.4300  139.1944  162.3155 C.3     1  UNL1        0.0576
      6 C         143.6481  139.7489  162.9928 C.3     1  UNL1        0.0163
      7 C         143.5679  140.2156  164.4161 C.3     1  UNL1        0.0057
      8 C         142.2695  140.1279  165.1620 C.3     1  UNL1        0.0225
      9 C         141.0513  139.5734  164.4847 C.3     1  UNL1        0.0057
     10 C         141.1316  139.1067  163.0614 C.3     1  UNL1        0.0163
     11 C         142.1892  140.5946  166.5854 C.ar    1  UNL1       -0.0193
     12 C         142.9581  141.8063  167.0218 C.ar    1  UNL1       -0.0010
     13 C         142.8778  142.2730  168.4451 C.ar    1  UNL1        0.0399
     14 C         142.0286  141.5281  169.4319 C.ar    1  UNL1        0.1764
     15 C         141.2596  140.3164  168.9954 C.ar    1  UNL1        0.1761
     16 C         141.3399  139.8496  167.5722 C.ar    1  UNL1        0.0359
     17 O         140.5116  139.7891  170.1839 O.3     1  UNL1       -0.4346
     18 C         140.8183  140.6750  171.3549 C.3     1  UNL1        0.4294
     19 O         141.7558  141.7497  170.8901 O.3     1  UNL1       -0.4346
     20 O         140.1106  137.5070  157.3407 O.2     1  UNL1       -0.2733
     21 C         141.4476  137.3206  156.6868 C.2     1  UNL1        0.2426
     22 N         142.7044  137.6008  157.4562 N.am    1  UNL1       -0.3018
     23 H         143.5819  137.4785  157.0270 H       1  UNL1        0.1495
     24 C         141.5279  136.8538  155.2634 C.3     1  UNL1        0.1759
     25 N         141.7636  135.4035  154.9619 N.am    1  UNL1       -0.2931
     26 C         143.0896  134.7776  155.2782 C.2     1  UNL1        0.2462
     27 O         144.1798  135.6021  155.8960 O.2     1  UNL1       -0.2701
     28 H         141.0481  134.8623  154.5564 H       1  UNL1        0.1502
     29 C         143.3253  133.3273  154.9767 C.ar    1  UNL1        0.0534
     30 C         142.6231  132.6777  153.8213 C.ar    1  UNL1        0.0045
     31 C         142.8589  131.2273  153.5199 C.ar    1  UNL1        0.0001
     32 C         143.7968  130.4265  154.3737 C.ar    1  UNL1        0.0000
     33 C         144.4990  131.0761  155.5291 C.ar    1  UNL1        0.0001
     34 C         144.2633  132.5265  155.8306 C.ar    1  UNL1        0.0045
@<TRIPOS>BOND
     1    20    21    2
     2    21    24    1
     3    24    25    1
     4    25    26   am
     5    26    27    2
     6    26    29    1
     7    29    30   ar
     8    30    31   ar
     9    31    32   ar
    10    32    33   ar
    11    33    34   ar
    12    21    22   am
    13    22     1    1
    14     1     2    1
    15     2     3    1
    16     5     3    1
    17     5     6    1
    18     6     7    1
    19     7     8    1
    20     8    11    1
    21    11    12   ar
    22    12    13   ar
    23    13    14   ar
    24    14    15   ar
    25    15    16   ar
    26    15    17    1
    27    17    18    1
    28    18    19    1
    29     8     9    1
    30     9    10    1
    31     3     4    1
    32    34    29   ar
    33     4     1    1
    34    10     5    1
    35    16    11   ar
    36    19    14    1
    37    25    28    1
    38    22    23    1
@<TRIPOS>MOLECULE
*****
 34 38 0 0 0
SMALL
GASTEIGER

@<TRIPOS>ATOM
      1 C         144.2321  142.4742  159.5403 C.3     1  UNL1        0.1035
      2 C         142.9599  141.9145  160.1045 C.3     1  UNL1        0.0933
      3 N         143.5326  142.0070  161.4878 N.3     1  UNL1       -0.2711
      4 C         144.8048  142.5667  160.9236 C.3     1  UNL1        0.0933
      5 C         143.0381  141.6766  162.8648 C.3     1  UNL1        0.0576
      6 C         142.4720  142.7572  163.7377 C.3     1  UNL1        0.0163
      7 C         141.9775  142.4269  165.1147 C.3     1  UNL1        0.0057
      8 C         142.0490  141.0160  165.6190 C.3     1  UNL1        0.0225
      9 C         142.6151  139.9354  164.7461 C.3     1  UNL1        0.0057
     10 C         143.1096  140.2657  163.3690 C.3     1  UNL1        0.0163
     11 C         141.5544  140.6857  166.9961 C.ar    1  UNL1       -0.0193
     12 C         142.5147  140.6428  168.1476 C.ar    1  UNL1       -0.0010
     13 C         142.0201  140.3125  169.5246 C.ar    1  UNL1        0.0399
     14 C         140.5653  140.0251  169.7502 C.ar    1  UNL1        0.1764
     15 C         139.6050  140.0681  168.5987 C.ar    1  UNL1        0.1761
     16 C         140.0995  140.3984  167.2216 C.ar    1  UNL1        0.0359
     17 O         138.2378  139.7422  169.1228 O.3     1  UNL1       -0.4346
     18 C         138.3532  139.4979  170.5982 C.3     1  UNL1        0.4294
     19 O         139.7916  139.6727  170.9860 O.3     1  UNL1       -0.4346
     20 O         144.8270  140.2721  157.5919 O.2     1  UNL1       -0.2733
     21 C         145.0241  141.7035  157.1891 C.2     1  UNL1        0.2426
     22 N         144.7266  142.8046  158.1633 N.am    1  UNL1       -0.3018
     23 H         144.8559  143.7441  157.8989 H       1  UNL1        0.1495
     24 C         145.5186  142.0338  155.8119 C.3     1  UNL1        0.1759
     25 N         146.9606  142.3868  155.5975 N.am    1  UNL1       -0.2931
     26 C         147.6176  142.0904  154.2820 C.2     1  UNL1        0.2462
     27 O         146.8327  141.4412  153.1810 O.2     1  UNL1       -0.2701
     28 H         147.4759  142.8129  156.3201 H       1  UNL1        0.1502
     29 C         149.0597  142.4434  154.0676 C.ar    1  UNL1        0.0534
     30 C         150.1293  141.7305  154.8407 C.ar    1  UNL1        0.0045
     31 C         151.5713  142.0835  154.6262 C.ar    1  UNL1        0.0001
     32 C         151.9437  143.1494  153.6387 C.ar    1  UNL1        0.0000
     33 C         150.8741  143.8623  152.8656 C.ar    1  UNL1        0.0001
     34 C         149.4321  143.5093  153.0800 C.ar    1  UNL1        0.0045
@<TRIPOS>BOND
     1    20    21    2
     2    21    24    1
     3    24    25    1
     4    25    26   am
     5    26    27    2
     6    26    29    1
     7    29    30   ar
     8    30    31   ar
     9    31    32   ar
    10    32    33   ar
    11    33    34   ar
    12    21    22   am
    13    22     1    1
    14     1     2    1
    15     2     3    1
    16     5     3    1
    17     5     6    1
    18     6     7    1
    19     7     8    1
    20     8    11    1
    21    11    12   ar
    22    12    13   ar
    23    13    14   ar
    24    14    15   ar
    25    15    16   ar
    26    15    17    1
    27    17    18    1
    28    18    19    1
    29     8     9    1
    30     9    10    1
    31     3     4    1
    32    34    29   ar
    33     4     1    1
    34    10     5    1
    35    16    11   ar
    36    19    14    1
    37    25    28    1
    38    22    23    1
@<TRIPOS>MOLECULE
*****
 34 38 0 0 0
SMALL
GASTEIGER

@<TRIPOS>ATOM
      1 C         144.0168  140.3752  159.0353 C.3     1  UNL1        0.1035
      2 C         143.6532  139.4153  160.1292 C.3     1  UNL1        0.0933
      3 N         143.2179  140.5628  160.9915 N.3     1  UNL1       -0.2711
      4 C         143.5815  141.5227  159.8977 C.3     1  UNL1        0.0933
      5 C         142.6530  140.6955  162.3747 C.3     1  UNL1        0.0576
      6 C         141.2207  141.0988  162.5643 C.3     1  UNL1        0.0163
      7 C         140.6557  141.2316  163.9474 C.3     1  UNL1        0.0057
      8 C         141.5230  140.9611  165.1410 C.3     1  UNL1        0.0225
      9 C         142.9553  140.5578  164.9514 C.3     1  UNL1        0.0057
     10 C         143.5203  140.4250  163.5683 C.3     1  UNL1        0.0163
     11 C         140.9580  141.0939  166.5243 C.ar    1  UNL1       -0.0193
     12 C         140.3906  139.8929  167.2211 C.ar    1  UNL1       -0.0010
     13 C         139.8257  140.0257  168.6043 C.ar    1  UNL1        0.0399
     14 C         139.8280  141.3595  169.2906 C.ar    1  UNL1        0.1764
     15 C         140.3954  142.5605  168.5937 C.ar    1  UNL1        0.1761
     16 C         140.9604  142.4277  167.2105 C.ar    1  UNL1        0.0359
     17 O         140.2619  143.7369  169.5146 O.3     1  UNL1       -0.4346
     18 C         139.6119  143.2630  170.7807 C.3     1  UNL1        0.4294
     19 O         139.3438  141.7936  170.6422 O.3     1  UNL1       -0.4346
     20 O         142.7270  141.8186  156.7436 O.2     1  UNL1       -0.2733
     21 C         143.9368  140.9642  156.5062 C.2     1  UNL1        0.2426
     22 N         144.5817  140.2424  157.6522 N.am    1  UNL1       -0.3018
     23 H         145.3757  139.6816  157.4964 H       1  UNL1        0.1495
     24 C         144.5017  140.8315  155.1229 C.3     1  UNL1        0.1759
     25 N         145.9802  140.9539  154.9017 N.am    1  UNL1       -0.2931
     26 C         146.5752  142.2788  154.5265 C.2     1  UNL1        0.2462
     27 O         145.6917  143.4811  154.3727 O.2     1  UNL1       -0.2701
     28 H         146.5601  140.1647  155.0027 H       1  UNL1        0.1502
     29 C         148.0537  142.4012  154.3053 C.ar    1  UNL1        0.0534
     30 C         149.0080  141.6386  155.1757 C.ar    1  UNL1        0.0045
     31 C         150.4866  141.7611  154.9544 C.ar    1  UNL1        0.0001
     32 C         151.0108  142.6461  153.8627 C.ar    1  UNL1        0.0000
     33 C         150.0565  143.4087  152.9922 C.ar    1  UNL1        0.0001
     34 C         148.5779  143.2863  153.2135 C.ar    1  UNL1        0.0045
@<TRIPOS>BOND
     1    20    21    2
     2    21    24    1
     3    24    25    1
     4    25    26   am
     5    26    27    2
     6    26    29    1
     7    29    30   ar
     8    30    31   ar
     9    31    32   ar
    10    32    33   ar
    11    33    34   ar
    12    21    22   am
    13    22     1    1
    14     1     2    1
    15     2     3    1
    16     5     3    1
    17     5     6    1
    18     6     7    1
    19     7     8    1
    20     8    11    1
    21    11    12   ar
    22    12    13   ar
    23    13    14   ar
    24    14    15   ar
    25    15    16   ar
    26    15    17    1
    27    17    18    1
    28    18    19    1
    29     8     9    1
    30     9    10    1
    31     3     4    1
    32    34    29   ar
    33     4     1    1
    34    10     5    1
    35    16    11   ar
    36    19    14    1
    37    25    28    1
    38    22    23    1
@<TRIPOS>MOLECULE
*****
 34 38 0 0 0
SMALL
GASTEIGER

@<TRIPOS>ATOM
      1 C         142.8554  143.3936  158.9744 C.3     1  UNL1        0.1035
      2 C         141.5564  143.2105  159.7018 C.3     1  UNL1        0.0933
      3 N         142.3062  142.8684  160.9550 N.3     1  UNL1       -0.2711
      4 C         143.6053  143.0515  160.2276 C.3     1  UNL1        0.0933
      5 C         141.9180  142.4971  162.3555 C.3     1  UNL1        0.0576
      6 C         141.8365  141.0531  162.7532 C.3     1  UNL1        0.0163
      7 C         141.4482  140.6817  164.1537 C.3     1  UNL1        0.0057
      8 C         141.1416  141.7543  165.1564 C.3     1  UNL1        0.0225
      9 C         141.2231  143.1983  164.7587 C.3     1  UNL1        0.0057
     10 C         141.6113  143.5697  163.3582 C.3     1  UNL1        0.0163
     11 C         140.7533  141.3829  166.5570 C.ar    1  UNL1       -0.0193
     12 C         139.6352  140.4113  166.7926 C.ar    1  UNL1       -0.0010
     13 C         139.2470  140.0399  168.1931 C.ar    1  UNL1        0.0399
     14 C         139.9769  140.6401  169.3579 C.ar    1  UNL1        0.1764
     15 C         141.0951  141.6118  169.1223 C.ar    1  UNL1        0.1761
     16 C         141.4833  141.9832  167.7218 C.ar    1  UNL1        0.0359
     17 O         141.6283  142.0378  170.4580 O.3     1  UNL1       -0.4346
     18 C         140.8396  141.3294  171.5192 C.3     1  UNL1        0.4294
     19 O         139.8190  140.4656  170.8393 O.3     1  UNL1       -0.4346
     20 O         143.4281  141.2477  156.9578 O.2     1  UNL1       -0.2733
     21 C         143.5300  142.6919  156.5656 C.2     1  UNL1        0.2426
     22 N         143.2436  143.7649  157.5739 N.am    1  UNL1       -0.3018
     23 H         143.3105  144.7128  157.3166 H       1  UNL1        0.1495
     24 C         143.9182  143.0631  155.1650 C.3     1  UNL1        0.1759
     25 N         145.3623  143.2738  154.8179 N.am    1  UNL1       -0.2931
     26 C         146.2927  142.1001  154.7357 C.2     1  UNL1        0.2462
     27 O         145.7792  140.7159  155.0007 O.2     1  UNL1       -0.2701
     28 H         145.6993  144.1823  154.6440 H       1  UNL1        0.1502
     29 C         147.7367  142.3107  154.3886 C.ar    1  UNL1        0.0534
     30 C         148.8093  141.6854  155.2303 C.ar    1  UNL1        0.0045
     31 C         150.2533  141.8961  154.8830 C.ar    1  UNL1        0.0001
     32 C         150.6247  142.7320  153.6942 C.ar    1  UNL1        0.0000
     33 C         149.5521  143.3574  152.8526 C.ar    1  UNL1        0.0001
     34 C         148.1081  143.1467  153.1997 C.ar    1  UNL1        0.0045
@<TRIPOS>BOND
     1    20    21    2
     2    21    24    1
     3    24    25    1
     4    25    26   am
     5    26    27    2
     6    26    29    1
     7    29    30   ar
     8    30    31   ar
     9    31    32   ar
    10    32    33   ar
    11    33    34   ar
    12    21    22   am
    13    22     1    1
    14     1     2    1
    15     2     3    1
    16     5     3    1
    17     5     6    1
    18     6     7    1
    19     7     8    1
    20     8    11    1
    21    11    12   ar
    22    12    13   ar
    23    13    14   ar
    24    14    15   ar
    25    15    16   ar
    26    15    17    1
    27    17    18    1
    28    18    19    1
    29     8     9    1
    30     9    10    1
    31     3     4    1
    32    34    29   ar
    33     4     1    1
    34    10     5    1
    35    16    11   ar
    36    19    14    1
    37    25    28    1
    38    22    23    1
