@<TRIPOS>MOLECULE
*****
 28 31 0 0 0
SMALL
GASTEIGER

@<TRIPOS>ATOM
      1 C         141.1204  138.3958  160.1421 C.ar    1  UNL1        0.1547
      2 C         140.8619  138.6527  161.5971 C.ar    1  UNL1        0.0384
      3 C         141.9992  138.6371  162.5751 C.ar    1  UNL1        0.0032
      4 C         143.3949  138.3644  162.0980 C.ar    1  UNL1        0.0017
      5 C         143.6534  138.1074  160.6429 C.ar    1  UNL1        0.0206
      6 C         142.5161  138.1231  159.6650 C.ar    1  UNL1        0.0994
      7 N         142.7746  137.8661  158.2100 N.ar    1  UNL1       -0.2839
      8 C         142.9950  138.9102  157.1558 C.ar    1  UNL1        0.1826
      9 N         143.2146  138.2092  155.8479 N.ar    1  UNL1       -0.2280
     10 C         143.1300  136.7319  156.0938 C.ar    1  UNL1        0.0786
     11 C         143.2893  135.6557  155.0612 C.3     1  UNL1        0.0538
     12 C         142.8580  136.5198  157.5536 C.ar    1  UNL1        0.0963
     13 C         139.4885  139.7146  158.6099 C.3     1  UNL1        0.2525
     14 O         139.9831  138.4114  159.1642 O.3     1  UNL1       -0.4700
     15 C         141.7408  138.8940  164.0301 C.2     1  UNL1        0.0032
     16 C         142.5903  139.8763  164.7807 C.2     1  UNL1        0.0371
     17 C         142.3319  140.1333  166.2358 C.ar    1  UNL1        0.1461
     18 N         141.5542  141.3449  166.6568 N.ar    1  UNL1       -0.2280
     19 C         141.2958  141.6019  168.1119 C.ar    1  UNL1        0.0875
     20 C         140.5181  142.8135  168.5329 C.ar    1  UNL1        0.0193
     21 C         140.2597  143.0704  169.9880 C.ar    1  UNL1        0.0015
     22 C         140.7790  142.1159  171.0220 C.ar    1  UNL1        0.0003
     23 C         141.5567  140.9043  170.6009 C.ar    1  UNL1        0.0063
     24 C         141.8151  140.6473  169.1459 C.ar    1  UNL1        0.0739
     25 C         142.5928  139.4357  168.7248 C.ar    1  UNL1        0.2634
     26 O         143.1121  138.4812  169.7588 O.2     1  UNL1       -0.2669
     27 N         142.8512  139.1788  167.2698 N.ar    1  UNL1       -0.2786
     28 C         143.6289  137.9672  166.8486 C.3     1  UNL1        0.1350
@<TRIPOS>BOND
     1    13    14    1
     2    14     1    1
     3     1     2   ar
     4     2     3   ar
     5     3    15    1
     6    15    16    2
     7    16    17    1
     8    17    18   ar
     9    18    19   ar
    10    19    20   ar
    11    20    21   ar
    12    21    22   ar
    13    22    23   ar
    14    23    24   ar
    15    24    25   ar
    16    25    26    2
    17    25    27   ar
    18    27    28    1
    19     3     4   ar
    20     4     5   ar
    21     5     6   ar
    22     6     7    1
    23     7     8   ar
    24     8     9   ar
    25     9    10   ar
    26    10    11    1
    27    10    12   ar
    28     6     1   ar
    29    12     7   ar
    30    27    17   ar
    31    24    19   ar
@<TRIPOS>MOLECULE
*****
 28 31 0 0 0
SMALL
GASTEIGER

@<TRIPOS>ATOM
      1 C         141.1248  138.4084  160.2841 C.ar    1  UNL1        0.1547
      2 C         140.9689  138.7051  161.7461 C.ar    1  UNL1        0.0384
      3 C         142.1630  138.6569  162.6527 C.ar    1  UNL1        0.0032
      4 C         143.5130  138.3120  162.0973 C.ar    1  UNL1        0.0017
      5 C         143.6689  138.0152  160.6351 C.ar    1  UNL1        0.0206
      6 C         142.4748  138.0634  159.7286 C.ar    1  UNL1        0.0994
      7 N         142.6308  137.7667  158.2665 N.ar    1  UNL1       -0.2839
      8 C         142.5958  138.7724  157.1541 C.ar    1  UNL1        0.1826
      9 N         142.7925  138.0394  155.8602 N.ar    1  UNL1       -0.2280
     10 C         142.9490  136.5807  156.1730 C.ar    1  UNL1        0.0786
     11 C         143.1672  135.4833  155.1741 C.3     1  UNL1        0.0538
     12 C         142.8491  136.4122  157.6601 C.ar    1  UNL1        0.0963
     13 C         139.1244  139.7165  159.2656 C.3     1  UNL1        0.2525
     14 O         139.9308  138.4566  159.3775 O.3     1  UNL1       -0.4700
     15 C         142.0070  138.9536  164.1148 C.2     1  UNL1        0.0032
     16 C         140.9698  139.9348  164.5744 C.2     1  UNL1        0.0371
     17 C         140.8138  140.2316  166.0365 C.ar    1  UNL1        0.1461
     18 N         141.8332  141.0746  166.7436 N.ar    1  UNL1       -0.2280
     19 C         141.6773  141.3713  168.2057 C.ar    1  UNL1        0.0875
     20 C         142.6967  142.2143  168.9129 C.ar    1  UNL1        0.0193
     21 C         142.5407  142.5110  170.3749 C.ar    1  UNL1        0.0015
     22 C         141.3652  141.9648  171.1298 C.ar    1  UNL1        0.0003
     23 C         140.3458  141.1218  170.4227 C.ar    1  UNL1        0.0063
     24 C         140.5018  140.8251  168.9606 C.ar    1  UNL1        0.0739
     25 C         139.4823  139.9821  168.2534 C.ar    1  UNL1        0.2634
     26 O         138.3068  139.4358  169.0083 O.2     1  UNL1       -0.2669
     27 N         139.6383  139.6853  166.7914 N.ar    1  UNL1       -0.2786
     28 C         138.6188  138.8423  166.0842 C.3     1  UNL1        0.1350
@<TRIPOS>BOND
     1    13    14    1
     2    14     1    1
     3     1     2   ar
     4     2     3   ar
     5     3    15    1
     6    15    16    2
     7    16    17    1
     8    17    18   ar
     9    18    19   ar
    10    19    20   ar
    11    20    21   ar
    12    21    22   ar
    13    22    23   ar
    14    23    24   ar
    15    24    25   ar
    16    25    26    2
    17    25    27   ar
    18    27    28    1
    19     3     4   ar
    20     4     5   ar
    21     5     6   ar
    22     6     7    1
    23     7     8   ar
    24     8     9   ar
    25     9    10   ar
    26    10    11    1
    27    10    12   ar
    28     6     1   ar
    29    12     7   ar
    30    27    17   ar
    31    24    19   ar
@<TRIPOS>MOLECULE
*****
 28 31 0 0 0
SMALL
GASTEIGER

@<TRIPOS>ATOM
      1 C         139.2477  143.4389  159.9915 C.ar    1  UNL1        0.1547
      2 C         139.1402  143.0556  161.4377 C.ar    1  UNL1        0.0384
      3 C         140.1023  143.6248  162.4380 C.ar    1  UNL1        0.0032
      4 C         141.1718  144.5773  161.9920 C.ar    1  UNL1        0.0017
      5 C         141.2792  144.9606  160.5457 C.ar    1  UNL1        0.0206
      6 C         140.3172  144.3914  159.5455 C.ar    1  UNL1        0.0994
      7 N         140.4247  144.7747  158.0994 N.ar    1  UNL1       -0.2839
      8 C         140.8129  143.8641  156.9724 C.ar    1  UNL1        0.1826
      9 N         140.7910  144.6626  155.7026 N.ar    1  UNL1       -0.2280
     10 C         140.3891  146.0667  156.0450 C.ar    1  UNL1        0.0786
     11 C         140.2398  147.2020  155.0762 C.3     1  UNL1        0.0538
     12 C         140.1627  146.1360  157.5262 C.ar    1  UNL1        0.0963
     13 C         138.3630  141.4190  158.6177 C.3     1  UNL1        0.2525
     14 O         138.2857  142.8697  158.9913 O.3     1  UNL1       -0.4700
     15 C         139.9949  143.2415  163.8842 C.2     1  UNL1        0.0032
     16 C         140.5488  141.9296  164.3555 C.2     1  UNL1        0.0371
     17 C         140.4413  141.5463  165.8017 C.ar    1  UNL1        0.1461
     18 N         141.3365  142.1921  166.8173 N.ar    1  UNL1       -0.2280
     19 C         141.2291  141.8087  168.2636 C.ar    1  UNL1        0.0875
     20 C         142.1243  142.4545  169.2791 C.ar    1  UNL1        0.0193
     21 C         142.0168  142.0711  170.7253 C.ar    1  UNL1        0.0015
     22 C         141.0141  141.0419  171.1559 C.ar    1  UNL1        0.0003
     23 C         140.1189  140.3961  170.1403 C.ar    1  UNL1        0.0063
     24 C         140.2264  140.7795  168.6941 C.ar    1  UNL1        0.0739
     25 C         139.3311  140.1337  167.6784 C.ar    1  UNL1        0.2634
     26 O         138.3285  139.1045  168.1090 O.2     1  UNL1       -0.2669
     27 N         139.4386  140.5171  166.2323 N.ar    1  UNL1       -0.2786
     28 C         138.5434  139.8712  165.2166 C.3     1  UNL1        0.1350
@<TRIPOS>BOND
     1    13    14    1
     2    14     1    1
     3     1     2   ar
     4     2     3   ar
     5     3    15    1
     6    15    16    2
     7    16    17    1
     8    17    18   ar
     9    18    19   ar
    10    19    20   ar
    11    20    21   ar
    12    21    22   ar
    13    22    23   ar
    14    23    24   ar
    15    24    25   ar
    16    25    26    2
    17    25    27   ar
    18    27    28    1
    19     3     4   ar
    20     4     5   ar
    21     5     6   ar
    22     6     7    1
    23     7     8   ar
    24     8     9   ar
    25     9    10   ar
    26    10    11    1
    27    10    12   ar
    28     6     1   ar
    29    12     7   ar
    30    27    17   ar
    31    24    19   ar
@<TRIPOS>MOLECULE
*****
 28 31 0 0 0
SMALL
GASTEIGER

@<TRIPOS>ATOM
      1 C         140.9763  139.6859  164.9573 C.ar    1  UNL1        0.1547
      2 C         140.7408  139.0482  163.6202 C.ar    1  UNL1        0.0384
      3 C         141.9051  138.5970  162.7889 C.ar    1  UNL1        0.0032
      4 C         143.3049  138.7836  163.2948 C.ar    1  UNL1        0.0017
      5 C         143.5403  139.4213  164.6320 C.ar    1  UNL1        0.0206
      6 C         142.3760  139.8724  165.4632 C.ar    1  UNL1        0.0994
      7 N         142.6115  140.5100  166.8003 N.ar    1  UNL1       -0.2839
      8 C         142.9885  141.9420  167.0402 C.ar    1  UNL1        0.1826
      9 N         143.1213  142.1447  168.5206 N.ar    1  UNL1       -0.2280
     10 C         142.8263  140.8380  169.1956 C.ar    1  UNL1        0.0786
     11 C         142.8434  140.5858  170.6741 C.3     1  UNL1        0.0538
     12 C         142.5112  139.8278  168.1325 C.ar    1  UNL1        0.0963
     13 C         138.5383  139.3447  165.7879 C.3     1  UNL1        0.2525
     14 O         139.8120  140.1370  165.7885 O.3     1  UNL1       -0.4700
     15 C         141.6697  137.9594  161.4518 C.2     1  UNL1        0.0032
     16 C         141.9744  138.7188  160.1947 C.2     1  UNL1        0.0371
     17 C         141.7390  138.0811  158.8575 C.ar    1  UNL1        0.1461
     18 N         142.8221  137.2675  158.2135 N.ar    1  UNL1       -0.2280
     19 C         142.5866  136.6298  156.8763 C.ar    1  UNL1        0.0875
     20 C         143.6697  135.8162  156.2322 C.ar    1  UNL1        0.0193
     21 C         143.4342  135.1786  154.8951 C.ar    1  UNL1        0.0015
     22 C         142.1156  135.3546  154.2020 C.ar    1  UNL1        0.0003
     23 C         141.0325  136.1683  154.8460 C.ar    1  UNL1        0.0063
     24 C         141.2680  136.8059  156.1832 C.ar    1  UNL1        0.0739
     25 C         140.1849  137.6196  156.8273 C.ar    1  UNL1        0.2634
     26 O         138.8663  137.7957  156.1342 O.2     1  UNL1       -0.2669
     27 N         140.4204  138.2572  158.1644 N.ar    1  UNL1       -0.2786
     28 C         139.3373  139.0709  158.8085 C.3     1  UNL1        0.1350
@<TRIPOS>BOND
     1    13    14    1
     2    14     1    1
     3     1     2   ar
     4     2     3   ar
     5     3    15    1
     6    15    16    2
     7    16    17    1
     8    17    18   ar
     9    18    19   ar
    10    19    20   ar
    11    20    21   ar
    12    21    22   ar
    13    22    23   ar
    14    23    24   ar
    15    24    25   ar
    16    25    26    2
    17    25    27   ar
    18    27    28    1
    19     3     4   ar
    20     4     5   ar
    21     5     6   ar
    22     6     7    1
    23     7     8   ar
    24     8     9   ar
    25     9    10   ar
    26    10    11    1
    27    10    12   ar
    28     6     1   ar
    29    12     7   ar
    30    27    17   ar
    31    24    19   ar
@<TRIPOS>MOLECULE
*****
 28 31 0 0 0
SMALL
GASTEIGER

@<TRIPOS>ATOM
      1 C         143.7772  140.3766  160.2233 C.ar    1  UNL1        0.1547
      2 C         143.4305  140.4397  161.6813 C.ar    1  UNL1        0.0384
      3 C         143.2169  141.7681  162.3446 C.ar    1  UNL1        0.0032
      4 C         143.3500  143.0332  161.5498 C.ar    1  UNL1        0.0017
      5 C         143.6967  142.9700  160.0917 C.ar    1  UNL1        0.0206
      6 C         143.9104  141.6417  159.4285 C.ar    1  UNL1        0.0994
      7 N         144.2571  141.5786  157.9706 N.ar    1  UNL1       -0.2839
      8 C         143.3740  141.0569  156.8760 C.ar    1  UNL1        0.1826
      9 N         144.1190  141.1820  155.5800 N.ar    1  UNL1       -0.2280
     10 C         145.4625  141.7809  155.8737 C.ar    1  UNL1        0.0786
     11 C         146.5327  142.0819  154.8668 C.3     1  UNL1        0.0538
     12 C         145.5479  142.0260  157.3510 C.ar    1  UNL1        0.0963
     13 C         142.9731  137.9580  159.7195 C.3     1  UNL1        0.2525
     14 O         143.9909  139.0483  159.5601 O.3     1  UNL1       -0.4700
     15 C         142.8701  141.8312  163.8025 C.2     1  UNL1        0.0032
     16 C         142.8097  140.5713  164.6143 C.2     1  UNL1        0.0371
     17 C         142.4630  140.6344  166.0723 C.ar    1  UNL1        0.1461
     18 N         141.6794  141.7962  166.6073 N.ar    1  UNL1       -0.2280
     19 C         141.3326  141.8593  168.0654 C.ar    1  UNL1        0.0875
     20 C         140.5491  143.0210  168.6003 C.ar    1  UNL1        0.0193
     21 C         140.2023  143.0841  170.0583 C.ar    1  UNL1        0.0015
     22 C         140.6392  141.9853  170.9813 C.ar    1  UNL1        0.0003
     23 C         141.4228  140.8236  170.4464 C.ar    1  UNL1        0.0063
     24 C         141.7695  140.7605  168.9884 C.ar    1  UNL1        0.0739
     25 C         142.5531  139.5987  168.4533 C.ar    1  UNL1        0.2634
     26 O         142.9900  138.5000  169.3763 O.2     1  UNL1       -0.2669
     27 N         142.8998  139.5357  166.9953 N.ar    1  UNL1       -0.2786
     28 C         143.6835  138.3739  166.4603 C.3     1  UNL1        0.1350
@<TRIPOS>BOND
     1    13    14    1
     2    14     1    1
     3     1     2   ar
     4     2     3   ar
     5     3    15    1
     6    15    16    2
     7    16    17    1
     8    17    18   ar
     9    18    19   ar
    10    19    20   ar
    11    20    21   ar
    12    21    22   ar
    13    22    23   ar
    14    23    24   ar
    15    24    25   ar
    16    25    26    2
    17    25    27   ar
    18    27    28    1
    19     3     4   ar
    20     4     5   ar
    21     5     6   ar
    22     6     7    1
    23     7     8   ar
    24     8     9   ar
    25     9    10   ar
    26    10    11    1
    27    10    12   ar
    28     6     1   ar
    29    12     7   ar
    30    27    17   ar
    31    24    19   ar
@<TRIPOS>MOLECULE
*****
 28 31 0 0 0
SMALL
GASTEIGER

@<TRIPOS>ATOM
      1 C         139.9287  137.2942  156.7293 C.ar    1  UNL1        0.1547
      2 C         139.7030  138.2314  157.8784 C.ar    1  UNL1        0.0384
      3 C         140.8661  138.7083  158.6970 C.ar    1  UNL1        0.0032
      4 C         142.2548  138.2478  158.3663 C.ar    1  UNL1        0.0017
      5 C         142.4805  137.3105  157.2170 C.ar    1  UNL1        0.0206
      6 C         141.3174  136.8338  156.3986 C.ar    1  UNL1        0.0994
      7 N         141.5431  135.8965  155.2494 N.ar    1  UNL1       -0.2839
      8 C         141.8094  136.2930  153.8275 C.ar    1  UNL1        0.1826
      9 N         141.9730  135.0397  153.0196 N.ar    1  UNL1       -0.2280
     10 C         141.8078  133.8686  153.9423 C.ar    1  UNL1        0.0786
     11 C         141.8933  132.4221  153.5550 C.3     1  UNL1        0.0538
     12 C         141.5421  134.3981  155.3204 C.ar    1  UNL1        0.0963
     13 C         138.3458  137.5795  154.6889 C.3     1  UNL1        0.2525
     14 O         138.7656  136.8174  155.9108 O.3     1  UNL1       -0.4700
     15 C         140.6404  139.6455  159.8461 C.2     1  UNL1        0.0032
     16 C         141.0591  141.0816  159.7360 C.2     1  UNL1        0.0371
     17 C         140.8334  142.0189  160.8852 C.ar    1  UNL1        0.1461
     18 N         139.5193  142.0161  161.6084 N.ar    1  UNL1       -0.2280
     19 C         139.2937  142.9534  162.7576 C.ar    1  UNL1        0.0875
     20 C         137.9796  142.9506  163.4808 C.ar    1  UNL1        0.0193
     21 C         137.7539  143.8878  164.6300 C.ar    1  UNL1        0.0015
     22 C         138.8424  144.8280  165.0559 C.ar    1  UNL1        0.0003
     23 C         140.1565  144.8308  164.3327 C.ar    1  UNL1        0.0063
     24 C         140.3821  143.8935  163.1835 C.ar    1  UNL1        0.0739
     25 C         141.6963  143.8963  162.4602 C.ar    1  UNL1        0.2634
     26 O         142.7848  144.8365  162.8862 O.2     1  UNL1       -0.2669
     27 N         141.9219  142.9591  161.3111 N.ar    1  UNL1       -0.2786
     28 C         143.2361  142.9619  160.5878 C.3     1  UNL1        0.1350
@<TRIPOS>BOND
     1    13    14    1
     2    14     1    1
     3     1     2   ar
     4     2     3   ar
     5     3    15    1
     6    15    16    2
     7    16    17    1
     8    17    18   ar
     9    18    19   ar
    10    19    20   ar
    11    20    21   ar
    12    21    22   ar
    13    22    23   ar
    14    23    24   ar
    15    24    25   ar
    16    25    26    2
    17    25    27   ar
    18    27    28    1
    19     3     4   ar
    20     4     5   ar
    21     5     6   ar
    22     6     7    1
    23     7     8   ar
    24     8     9   ar
    25     9    10   ar
    26    10    11    1
    27    10    12   ar
    28     6     1   ar
    29    12     7   ar
    30    27    17   ar
    31    24    19   ar
@<TRIPOS>MOLECULE
*****
 28 31 0 0 0
SMALL
GASTEIGER

@<TRIPOS>ATOM
      1 C         138.6149  142.1231  160.0752 C.ar    1  UNL1        0.1547
      2 C         138.8277  142.3092  161.5483 C.ar    1  UNL1        0.0384
      3 C         138.7116  141.1369  162.4769 C.ar    1  UNL1        0.0032
      4 C         138.3827  139.7785  161.9324 C.ar    1  UNL1        0.0017
      5 C         138.1699  139.5924  160.4592 C.ar    1  UNL1        0.0206
      6 C         138.2861  140.7647  159.5306 C.ar    1  UNL1        0.0994
      7 N         138.0733  140.5786  158.0576 N.ar    1  UNL1       -0.2839
      8 C         139.0220  139.9100  157.1072 C.ar    1  UNL1        0.1826
      9 N         138.4095  139.9466  155.7384 N.ar    1  UNL1       -0.2280
     10 C         137.0822  140.6377  155.8428 C.ar    1  UNL1        0.0786
     11 C         136.1300  140.8933  154.7124 C.3     1  UNL1        0.0538
     12 C         136.8744  141.0283  157.2761 C.ar    1  UNL1        0.0963
     13 C         139.9916  143.5087  158.3621 C.3     1  UNL1        0.2525
     14 O         138.7311  143.2954  159.1467 O.3     1  UNL1       -0.4700
     15 C         138.9243  141.3231  163.9500 C.2     1  UNL1        0.0032
     16 C         139.8738  140.4278  164.6896 C.2     1  UNL1        0.0371
     17 C         140.0866  140.6139  166.1628 C.ar    1  UNL1        0.1461
     18 N         141.2504  141.4213  166.6564 N.ar    1  UNL1       -0.2280
     19 C         141.4632  141.6074  168.1295 C.ar    1  UNL1        0.0875
     20 C         142.6270  142.4148  168.6231 C.ar    1  UNL1        0.0193
     21 C         142.8397  142.6009  170.0962 C.ar    1  UNL1        0.0015
     22 C         141.8887  141.9796  171.0757 C.ar    1  UNL1        0.0003
     23 C         140.7249  141.1722  170.5822 C.ar    1  UNL1        0.0063
     24 C         140.5121  140.9861  169.1091 C.ar    1  UNL1        0.0739
     25 C         139.3483  140.1787  168.6154 C.ar    1  UNL1        0.2634
     26 O         138.3972  139.5574  169.5950 O.2     1  UNL1       -0.2669
     27 N         139.1355  139.9926  167.1423 N.ar    1  UNL1       -0.2786
     28 C         137.9717  139.1852  166.6487 C.3     1  UNL1        0.1350
@<TRIPOS>BOND
     1    13    14    1
     2    14     1    1
     3     1     2   ar
     4     2     3   ar
     5     3    15    1
     6    15    16    2
     7    16    17    1
     8    17    18   ar
     9    18    19   ar
    10    19    20   ar
    11    20    21   ar
    12    21    22   ar
    13    22    23   ar
    14    23    24   ar
    15    24    25   ar
    16    25    26    2
    17    25    27   ar
    18    27    28    1
    19     3     4   ar
    20     4     5   ar
    21     5     6   ar
    22     6     7    1
    23     7     8   ar
    24     8     9   ar
    25     9    10   ar
    26    10    11    1
    27    10    12   ar
    28     6     1   ar
    29    12     7   ar
    30    27    17   ar
    31    24    19   ar
@<TRIPOS>MOLECULE
*****
 28 31 0 0 0
SMALL
GASTEIGER

@<TRIPOS>ATOM
      1 C         140.8452  139.8765  160.0176 C.ar    1  UNL1        0.1547
      2 C         140.9952  140.2912  161.4513 C.ar    1  UNL1        0.0384
      3 C         139.7975  140.3159  162.3541 C.ar    1  UNL1        0.0032
      4 C         138.4499  139.9259  161.8232 C.ar    1  UNL1        0.0017
      5 C         138.3000  139.5112  160.3894 C.ar    1  UNL1        0.0206
      6 C         139.4977  139.4865  159.4867 C.ar    1  UNL1        0.0994
      7 N         139.3477  139.0718  158.0530 N.ar    1  UNL1       -0.2839
      8 C         138.6781  139.8659  156.9708 C.ar    1  UNL1        0.1826
      9 N         138.7576  139.0750  155.6987 N.ar    1  UNL1       -0.2280
     10 C         139.4764  137.7921  155.9946 C.ar    1  UNL1        0.0786
     11 C         139.7775  136.7025  155.0088 C.3     1  UNL1        0.0538
     12 C         139.8411  137.7901  157.4496 C.ar    1  UNL1        0.0963
     13 C         143.3286  139.2433  159.5910 C.3     1  UNL1        0.2525
     14 O         142.0429  139.8518  159.1149 O.3     1  UNL1       -0.4700
     15 C         139.9474  140.7306  163.7878 C.2     1  UNL1        0.0032
     16 C         140.2575  139.7043  164.8368 C.2     1  UNL1        0.0371
     17 C         140.4075  140.1190  166.2706 C.ar    1  UNL1        0.1461
     18 N         141.6052  140.9132  166.7003 N.ar    1  UNL1       -0.2280
     19 C         141.7552  141.3279  168.1341 C.ar    1  UNL1        0.0875
     20 C         142.9529  142.1220  168.5638 C.ar    1  UNL1        0.0193
     21 C         143.1028  142.5367  169.9975 C.ar    1  UNL1        0.0015
     22 C         142.0550  142.1571  171.0015 C.ar    1  UNL1        0.0003
     23 C         140.8572  141.3630  170.5718 C.ar    1  UNL1        0.0063
     24 C         140.7073  140.9483  169.1381 C.ar    1  UNL1        0.0739
     25 C         139.5096  140.1541  168.7083 C.ar    1  UNL1        0.2634
     26 O         138.4617  139.7746  169.7123 O.2     1  UNL1       -0.2669
     27 N         139.3597  139.7395  167.2746 N.ar    1  UNL1       -0.2786
     28 C         138.1619  138.9453  166.8448 C.3     1  UNL1        0.1350
@<TRIPOS>BOND
     1    13    14    1
     2    14     1    1
     3     1     2   ar
     4     2     3   ar
     5     3    15    1
     6    15    16    2
     7    16    17    1
     8    17    18   ar
     9    18    19   ar
    10    19    20   ar
    11    20    21   ar
    12    21    22   ar
    13    22    23   ar
    14    23    24   ar
    15    24    25   ar
    16    25    26    2
    17    25    27   ar
    18    27    28    1
    19     3     4   ar
    20     4     5   ar
    21     5     6   ar
    22     6     7    1
    23     7     8   ar
    24     8     9   ar
    25     9    10   ar
    26    10    11    1
    27    10    12   ar
    28     6     1   ar
    29    12     7   ar
    30    27    17   ar
    31    24    19   ar
@<TRIPOS>MOLECULE
*****
 28 31 0 0 0
SMALL
GASTEIGER

@<TRIPOS>ATOM
      1 C         142.2653  143.4474  159.8234 C.ar    1  UNL1        0.1547
      2 C         142.5108  142.9501  161.2171 C.ar    1  UNL1        0.0384
      3 C         141.8448  143.6219  162.3813 C.ar    1  UNL1        0.0032
      4 C         140.9333  144.7909  162.1517 C.ar    1  UNL1        0.0017
      5 C         140.6879  145.2881  160.7579 C.ar    1  UNL1        0.0206
      6 C         141.3539  144.6164  159.5938 C.ar    1  UNL1        0.0994
      7 N         141.1084  145.1136  158.2001 N.ar    1  UNL1       -0.2839
      8 C         142.0277  145.9897  157.4018 C.ar    1  UNL1        0.1826
      9 N         141.3880  146.2396  156.0682 N.ar    1  UNL1       -0.2280
     10 C         140.0732  145.5179  156.0424 C.ar    1  UNL1        0.0786
     11 C         139.1019  145.4959  154.8996 C.3     1  UNL1        0.0538
     12 C         139.9004  144.8220  157.3599 C.ar    1  UNL1        0.0963
     13 C         144.3309  142.2533  158.7950 C.3     1  UNL1        0.2525
     14 O         142.9313  142.7756  158.6593 O.3     1  UNL1       -0.4700
     15 C         142.0902  143.1247  163.7750 C.2     1  UNL1        0.0032
     16 C         141.1105  142.1909  164.4216 C.2     1  UNL1        0.0371
     17 C         141.3559  141.6936  165.8154 C.ar    1  UNL1        0.1461
     18 N         140.7506  142.4113  166.9852 N.ar    1  UNL1       -0.2280
     19 C         140.9960  141.9140  168.3790 C.ar    1  UNL1        0.0875
     20 C         140.3907  142.6317  169.5488 C.ar    1  UNL1        0.0193
     21 C         140.6362  142.1344  170.9425 C.ar    1  UNL1        0.0015
     22 C         141.4869  140.9194  171.1663 C.ar    1  UNL1        0.0003
     23 C         142.0922  140.2018  169.9965 C.ar    1  UNL1        0.0063
     24 C         141.8468  140.6991  168.6028 C.ar    1  UNL1        0.0739
     25 C         142.4521  139.9814  167.4329 C.ar    1  UNL1        0.2634
     26 O         143.3029  138.7665  167.6568 O.2     1  UNL1       -0.2669
     27 N         142.2067  140.4787  166.0392 N.ar    1  UNL1       -0.2786
     28 C         142.8120  139.7610  164.8693 C.3     1  UNL1        0.1350
@<TRIPOS>BOND
     1    13    14    1
     2    14     1    1
     3     1     2   ar
     4     2     3   ar
     5     3    15    1
     6    15    16    2
     7    16    17    1
     8    17    18   ar
     9    18    19   ar
    10    19    20   ar
    11    20    21   ar
    12    21    22   ar
    13    22    23   ar
    14    23    24   ar
    15    24    25   ar
    16    25    26    2
    17    25    27   ar
    18    27    28    1
    19     3     4   ar
    20     4     5   ar
    21     5     6   ar
    22     6     7    1
    23     7     8   ar
    24     8     9   ar
    25     9    10   ar
    26    10    11    1
    27    10    12   ar
    28     6     1   ar
    29    12     7   ar
    30    27    17   ar
    31    24    19   ar
