@<TRIPOS>MOLECULE
*****
 26 28 0 0 0
SMALL
GASTEIGER

@<TRIPOS>ATOM
      1 C         138.5406  139.2617  166.5746 C.3     1  UNL1        0.0327
      2 C         139.8665  139.9510  166.4448 C.ar    1  UNL1       -0.0009
      3 C         140.6830  140.0630  165.1914 C.ar    1  UNL1        0.0727
      4 N         141.9297  140.8306  165.5176 N.ar    1  UNL1       -0.3135
      5 C         141.8838  141.1930  166.9724 C.ar    1  UNL1        0.1444
      6 N         142.8384  141.9477  167.8494 N.ar    1  UNL1       -0.2237
      7 C         142.5178  142.1587  169.2994 C.ar    1  UNL1        0.1366
      8 C         141.2426  141.6151  169.8725 C.ar    1  UNL1        0.0352
      9 C         140.2881  140.8604  168.9955 C.ar    1  UNL1        0.0619
     10 CL        139.0129  140.3167  169.5686 Cl      1  UNL1       -0.0821
     11 C         140.6086  140.6493  167.5455 C.ar    1  UNL1        0.0422
     12 C         143.4724  142.9135  170.1765 C.2     1  UNL1        0.2606
     13 N         142.9571  143.6897  171.3521 N.am    1  UNL1       -0.3241
     14 O         144.9422  142.8920  169.8780 O.2     1  UNL1       -0.2687
     15 H         141.9924  143.7038  171.5480 H       1  UNL1        0.1453
     16 H         143.5836  144.1851  171.9277 H       1  UNL1        0.1453
     17 C         143.0294  141.1754  164.5574 C.3     1  UNL1        0.0896
     18 C         144.1438  140.2018  164.3125 C.3     1  UNL1        0.0246
     19 C         143.0146  142.4938  163.8421 C.3     1  UNL1        0.0562
     20 C         142.1995  142.6609  162.5940 C.3     1  UNL1        0.0217
     21 C         142.1848  143.9793  161.8788 C.3     1  UNL1        0.0688
     22 N         142.9851  145.1306  162.4117 N.3     1  UNL1       -0.2952
     23 C         143.8001  144.9636  163.6598 C.3     1  UNL1        0.1043
     24 C         143.8149  143.6452  164.3750 C.3     1  UNL1        0.1784
     25 F         144.6299  143.4781  165.6232 F       1  UNL1       -0.2357
     26 H         142.3270  145.8895  162.5891 H       1  UNL1        0.1233
@<TRIPOS>BOND
     1     1     2    1
     2     2     3   ar
     3     3     4   ar
     4     4    17    1
     5    17    18    1
     6    17    19    1
     7    19    20    1
     8    20    21    1
     9    21    22    1
    10    22    23    1
    11    23    24    1
    12    24    25    1
    13     4     5   ar
    14     5     6   ar
    15     6     7   ar
    16     7    12    1
    17    12    13   am
    18    12    14    2
    19     7     8   ar
    20     8     9   ar
    21     9    10    1
    22     9    11   ar
    23    11     2   ar
    24    24    19    1
    25    11     5   ar
    26    22    26    1
    27    13    15    1
    28    13    16    1
@<TRIPOS>MOLECULE
*****
 26 28 0 0 0
SMALL
GASTEIGER

@<TRIPOS>ATOM
      1 C         138.8545  144.7182  165.1760 C.3     1  UNL1        0.0327
      2 C         139.4446  143.3561  165.3916 C.ar    1  UNL1       -0.0009
      3 C         140.3432  142.9536  166.5232 C.ar    1  UNL1        0.0727
      4 N         140.6937  141.5062  166.3444 N.ar    1  UNL1       -0.3135
      5 C         140.0117  141.0141  165.1023 C.ar    1  UNL1        0.1444
      6 N         139.9940  139.6726  164.4315 N.ar    1  UNL1       -0.2237
      7 C         139.2042  139.4745  163.1717 C.ar    1  UNL1        0.1366
      8 C         138.4323  140.6179  162.5828 C.ar    1  UNL1        0.0352
      9 C         138.4500  141.9593  163.2537 C.ar    1  UNL1        0.0619
     10 CL        137.6780  143.1027  162.6648 Cl      1  UNL1       -0.0821
     11 C         139.2397  142.1574  164.5134 C.ar    1  UNL1        0.0422
     12 C         139.1865  138.1330  162.5008 C.2     1  UNL1        0.2606
     13 N         137.9343  137.6438  161.8352 N.am    1  UNL1       -0.3241
     14 O         140.4208  137.2807  162.4954 O.2     1  UNL1       -0.2687
     15 H         137.1242  138.2032  161.8388 H       1  UNL1        0.1453
     16 H         137.9226  136.7634  161.3949 H       1  UNL1        0.1453
     17 C         141.5719  140.6934  167.2489 C.3     1  UNL1        0.0896
     18 C         142.7299  139.9279  166.6806 C.3     1  UNL1        0.0246
     19 C         141.2922  140.6462  168.7219 C.3     1  UNL1        0.0562
     20 C         142.3337  141.1068  169.6983 C.3     1  UNL1        0.0217
     21 C         142.0539  141.0595  171.1711 C.3     1  UNL1        0.0688
     22 N         140.7327  140.5517  171.6677 N.3     1  UNL1       -0.2952
     23 C         139.6913  140.0911  170.6914 C.3     1  UNL1        0.1043
     24 C         139.9710  140.1384  169.2185 C.3     1  UNL1        0.1784
     25 F         138.9296  139.6778  168.2421 F       1  UNL1       -0.2357
     26 H         140.3133  141.3055  172.2120 H       1  UNL1        0.1233
@<TRIPOS>BOND
     1     1     2    1
     2     2     3   ar
     3     3     4   ar
     4     4    17    1
     5    17    18    1
     6    17    19    1
     7    19    20    1
     8    20    21    1
     9    21    22    1
    10    22    23    1
    11    23    24    1
    12    24    25    1
    13     4     5   ar
    14     5     6   ar
    15     6     7   ar
    16     7    12    1
    17    12    13   am
    18    12    14    2
    19     7     8   ar
    20     8     9   ar
    21     9    10    1
    22     9    11   ar
    23    11     2   ar
    24    24    19    1
    25    11     5   ar
    26    22    26    1
    27    13    15    1
    28    13    16    1
@<TRIPOS>MOLECULE
*****
 26 28 0 0 0
SMALL
GASTEIGER

@<TRIPOS>ATOM
      1 C         144.7373  143.5096  165.2753 C.3     1  UNL1        0.0327
      2 C         143.3632  142.9629  165.5260 C.ar    1  UNL1       -0.0009
      3 C         142.9631  142.0713  166.6640 C.ar    1  UNL1        0.0727
      4 N         141.5005  141.7691  166.5240 N.ar    1  UNL1       -0.3135
      5 C         140.9967  142.4739  165.2994 C.ar    1  UNL1        0.1444
      6 N         139.6384  142.5392  164.6664 N.ar    1  UNL1       -0.2237
      7 C         139.4314  143.3422  163.4165 C.ar    1  UNL1        0.1366
      8 C         140.5826  144.0800  162.7997 C.ar    1  UNL1        0.0352
      9 C         141.9408  144.0147  163.4328 C.ar    1  UNL1        0.0619
     10 CL        143.0920  144.7525  162.8160 Cl      1  UNL1       -0.0821
     11 C         142.1479  143.2117  164.6826 C.ar    1  UNL1        0.0422
     12 C         138.0730  143.4075  162.7834 C.2     1  UNL1        0.2606
     13 N         137.4286  144.7374  162.5263 N.am    1  UNL1       -0.3241
     14 O         137.3592  142.1430  162.4075 O.2     1  UNL1       -0.2687
     15 H         137.8971  145.5674  162.7730 H       1  UNL1        0.1453
     16 H         136.5371  144.7803  162.1107 H       1  UNL1        0.1453
     17 C         140.6849  140.9125  167.4465 C.3     1  UNL1        0.0896
     18 C         139.9533  139.7181  166.9101 C.3     1  UNL1        0.0246
     19 C         140.6010  141.2505  168.9056 C.3     1  UNL1        0.0562
     20 C         140.8607  140.1924  169.9367 C.3     1  UNL1        0.0217
     21 C         140.7768  140.5304  171.3956 C.3     1  UNL1        0.0688
     22 N         140.4331  141.9264  171.8236 N.3     1  UNL1       -0.2952
     23 C         140.1734  142.9845  170.7926 C.3     1  UNL1        0.1043
     24 C         140.2574  142.6465  169.3336 C.3     1  UNL1        0.1784
     25 F         139.9977  143.7045  168.3024 F       1  UNL1       -0.2357
     26 H         141.2089  142.2580  172.3969 H       1  UNL1        0.1233
@<TRIPOS>BOND
     1     1     2    1
     2     2     3   ar
     3     3     4   ar
     4     4    17    1
     5    17    18    1
     6    17    19    1
     7    19    20    1
     8    20    21    1
     9    21    22    1
    10    22    23    1
    11    23    24    1
    12    24    25    1
    13     4     5   ar
    14     5     6   ar
    15     6     7   ar
    16     7    12    1
    17    12    13   am
    18    12    14    2
    19     7     8   ar
    20     8     9   ar
    21     9    10    1
    22     9    11   ar
    23    11     2   ar
    24    24    19    1
    25    11     5   ar
    26    22    26    1
    27    13    15    1
    28    13    16    1
@<TRIPOS>MOLECULE
*****
 26 28 0 0 0
SMALL
GASTEIGER

@<TRIPOS>ATOM
      1 C         138.8424  144.8294  164.9595 C.3     1  UNL1        0.0327
      2 C         139.9708  143.8791  165.2313 C.ar    1  UNL1       -0.0009
      3 C         140.0923  142.9714  166.4193 C.ar    1  UNL1        0.0727
      4 N         141.3723  142.2010  166.2849 N.ar    1  UNL1       -0.3135
      5 C         142.0418  142.6325  165.0138 C.ar    1  UNL1        0.1444
      6 N         143.3283  142.2151  164.3653 N.ar    1  UNL1       -0.2237
      7 C         143.7485  142.8347  163.0655 C.ar    1  UNL1        0.1366
      8 C         142.8823  143.8718  162.4143 C.ar    1  UNL1        0.0352
      9 C         141.5958  144.2893  163.0629 C.ar    1  UNL1        0.0619
     10 CL        140.7296  145.3264  162.4117 Cl      1  UNL1       -0.0821
     11 C         141.1756  143.6696  164.3626 C.ar    1  UNL1        0.0422
     12 C         145.0351  142.4173  162.4169 C.2     1  UNL1        0.2606
     13 N         145.2907  142.7483  160.9764 N.am    1  UNL1       -0.3241
     14 O         146.0659  141.6689  163.2088 O.2     1  UNL1       -0.2687
     15 H         144.6140  143.2395  160.4566 H       1  UNL1        0.1453
     16 H         146.1350  142.4743  160.5507 H       1  UNL1        0.1453
     17 C         141.8916  141.1786  167.2518 C.3     1  UNL1        0.0896
     18 C         142.3372  139.8351  166.7554 C.3     1  UNL1        0.0246
     19 C         141.9654  141.4996  168.7152 C.3     1  UNL1        0.0562
     20 C         142.9143  142.5530  169.2051 C.3     1  UNL1        0.0217
     21 C         142.9880  142.8740  170.6684 C.3     1  UNL1        0.0688
     22 N         142.1128  142.1417  171.6420 N.3     1  UNL1       -0.2952
     23 C         141.1639  141.0883  171.1521 C.3     1  UNL1        0.1043
     24 C         141.0902  140.7673  169.6888 C.3     1  UNL1        0.1784
     25 F         140.1413  139.7139  169.1988 F       1  UNL1       -0.2357
     26 H         141.5501  142.8458  172.1195 H       1  UNL1        0.1233
@<TRIPOS>BOND
     1     1     2    1
     2     2     3   ar
     3     3     4   ar
     4     4    17    1
     5    17    18    1
     6    17    19    1
     7    19    20    1
     8    20    21    1
     9    21    22    1
    10    22    23    1
    11    23    24    1
    12    24    25    1
    13     4     5   ar
    14     5     6   ar
    15     6     7   ar
    16     7    12    1
    17    12    13   am
    18    12    14    2
    19     7     8   ar
    20     8     9   ar
    21     9    10    1
    22     9    11   ar
    23    11     2   ar
    24    24    19    1
    25    11     5   ar
    26    22    26    1
    27    13    15    1
    28    13    16    1
@<TRIPOS>MOLECULE
*****
 26 28 0 0 0
SMALL
GASTEIGER

@<TRIPOS>ATOM
      1 C         140.5645  137.4293  164.6310 C.3     1  UNL1        0.0327
      2 C         140.6495  138.8291  165.1635 C.ar    1  UNL1       -0.0009
      3 C         141.5938  139.3133  166.2236 C.ar    1  UNL1        0.0727
      4 N         141.3330  140.7739  166.4445 N.ar    1  UNL1       -0.3135
      5 C         140.2276  141.1923  165.5210 C.ar    1  UNL1        0.1444
      6 N         139.5511  142.5125  165.2987 N.ar    1  UNL1       -0.2237
      7 C         138.4522  142.6307  164.2846 C.ar    1  UNL1        0.1366
      8 C         138.0297  141.4287  163.4929 C.ar    1  UNL1        0.0352
      9 C         138.7062  140.1086  163.7152 C.ar    1  UNL1        0.0619
     10 CL        138.2838  138.9066  162.9234 Cl      1  UNL1       -0.0821
     11 C         139.8051  139.9903  164.7292 C.ar    1  UNL1        0.0422
     12 C         137.7756  143.9509  164.0623 C.2     1  UNL1        0.2606
     13 N         137.5026  144.4281  162.6666 N.am    1  UNL1       -0.3241
     14 O         137.3721  144.7939  165.2355 O.2     1  UNL1       -0.2687
     15 H         137.7674  143.8748  161.8966 H       1  UNL1        0.1453
     16 H         137.0586  145.2945  162.5207 H       1  UNL1        0.1453
     17 C         142.0515  141.6604  167.4181 C.3     1  UNL1        0.0896
     18 C         143.2934  142.3874  166.9951 C.3     1  UNL1        0.0246
     19 C         141.5280  141.8198  168.8148 C.3     1  UNL1        0.0562
     20 C         140.5359  142.9013  169.1250 C.3     1  UNL1        0.0217
     21 C         140.0126  143.0607  170.5216 C.3     1  UNL1        0.0688
     22 N         140.4812  142.1387  171.6080 N.3     1  UNL1       -0.2952
     23 C         141.4733  141.0573  171.2978 C.3     1  UNL1        0.1043
     24 C         141.9967  140.8979  169.9012 C.3     1  UNL1        0.1784
     25 F         142.9888  139.8164  169.5909 F       1  UNL1       -0.2357
     26 H         139.6513  141.6785  171.9820 H       1  UNL1        0.1233
@<TRIPOS>BOND
     1     1     2    1
     2     2     3   ar
     3     3     4   ar
     4     4    17    1
     5    17    18    1
     6    17    19    1
     7    19    20    1
     8    20    21    1
     9    21    22    1
    10    22    23    1
    11    23    24    1
    12    24    25    1
    13     4     5   ar
    14     5     6   ar
    15     6     7   ar
    16     7    12    1
    17    12    13   am
    18    12    14    2
    19     7     8   ar
    20     8     9   ar
    21     9    10    1
    22     9    11   ar
    23    11     2   ar
    24    24    19    1
    25    11     5   ar
    26    22    26    1
    27    13    15    1
    28    13    16    1
@<TRIPOS>MOLECULE
*****
 26 28 0 0 0
SMALL
GASTEIGER

@<TRIPOS>ATOM
      1 C         143.9450  139.0589  165.1236 C.3     1  UNL1        0.0327
      2 C         143.1405  140.3169  165.2658 C.ar    1  UNL1       -0.0009
      3 C         142.8791  141.3232  164.1846 C.ar    1  UNL1        0.0727
      4 N         142.0333  142.4177  164.7648 N.ar    1  UNL1       -0.3135
      5 C         141.7719  142.0879  166.2046 C.ar    1  UNL1        0.1444
      6 N         140.9993  142.8020  167.2736 N.ar    1  UNL1       -0.2237
      7 C         140.9109  142.2178  168.6523 C.ar    1  UNL1        0.1366
      8 C         141.5952  140.9194  168.9619 C.ar    1  UNL1        0.0352
      9 C         142.3679  140.2052  167.8929 C.ar    1  UNL1        0.0619
     10 CL        143.0522  138.9068  168.2025 Cl      1  UNL1       -0.0821
     11 C         142.4563  140.7895  166.5142 C.ar    1  UNL1        0.0422
     12 C         140.1382  142.9319  169.7214 C.2     1  UNL1        0.2606
     13 N         139.3614  142.1470  170.7366 N.am    1  UNL1       -0.3241
     14 O         140.1422  144.4309  169.7753 O.2     1  UNL1       -0.2687
     15 H         139.3587  141.1632  170.7012 H       1  UNL1        0.1453
     16 H         138.8542  142.6157  171.4383 H       1  UNL1        0.1453
     17 C         141.5361  143.6294  164.0336 C.3     1  UNL1        0.0896
     18 C         142.3578  144.8841  164.0154 C.3     1  UNL1        0.0246
     19 C         140.2170  143.5864  163.3206 C.3     1  UNL1        0.0562
     20 C         140.0825  142.8206  162.0378 C.3     1  UNL1        0.0217
     21 C         138.7635  142.7777  161.3249 C.3     1  UNL1        0.0688
     22 N         137.5790  143.5003  161.8947 N.3     1  UNL1       -0.2952
     23 C         137.7135  144.2661  163.1775 C.3     1  UNL1        0.1043
     24 C         139.0325  144.3091  163.8904 C.3     1  UNL1        0.1784
     25 F         139.1671  145.0748  165.1733 F       1  UNL1       -0.2357
     26 H         136.8514  142.8012  162.0440 H       1  UNL1        0.1233
@<TRIPOS>BOND
     1     1     2    1
     2     2     3   ar
     3     3     4   ar
     4     4    17    1
     5    17    18    1
     6    17    19    1
     7    19    20    1
     8    20    21    1
     9    21    22    1
    10    22    23    1
    11    23    24    1
    12    24    25    1
    13     4     5   ar
    14     5     6   ar
    15     6     7   ar
    16     7    12    1
    17    12    13   am
    18    12    14    2
    19     7     8   ar
    20     8     9   ar
    21     9    10    1
    22     9    11   ar
    23    11     2   ar
    24    24    19    1
    25    11     5   ar
    26    22    26    1
    27    13    15    1
    28    13    16    1
@<TRIPOS>MOLECULE
*****
 26 28 0 0 0
SMALL
GASTEIGER

@<TRIPOS>ATOM
      1 C         144.8686  143.2909  165.7963 C.3     1  UNL1        0.0327
      2 C         143.4770  142.8063  165.5163 C.ar    1  UNL1       -0.0009
      3 C         142.8698  141.5303  166.0193 C.ar    1  UNL1        0.0727
      4 N         141.4658  141.4480  165.4979 N.ar    1  UNL1       -0.3135
      5 C         141.2052  142.6732  164.6726 C.ar    1  UNL1        0.1444
      6 N         139.9967  143.1328  163.9122 N.ar    1  UNL1       -0.2237
      7 C         140.0312  144.4319  163.1632 C.ar    1  UNL1        0.1366
      8 C         141.2743  145.2714  163.1746 C.ar    1  UNL1        0.0352
      9 C         142.4828  144.8118  163.9349 C.ar    1  UNL1        0.0619
     10 CL        143.7258  145.6512  163.9463 Cl      1  UNL1       -0.0821
     11 C         142.4482  143.5126  164.6839 C.ar    1  UNL1        0.0422
     12 C         138.8227  144.8916  162.4028 C.2     1  UNL1        0.2606
     13 N         137.5434  144.1129  162.4858 N.am    1  UNL1       -0.3241
     14 O         138.8935  146.1299  161.5593 O.2     1  UNL1       -0.2687
     15 H         137.4969  143.3001  163.0394 H       1  UNL1        0.1453
     16 H         136.7502  144.4145  161.9868 H       1  UNL1        0.1453
     17 C         140.4930  140.3358  165.7564 C.3     1  UNL1        0.0896
     18 C         139.8017  140.2374  167.0838 C.3     1  UNL1        0.0246
     19 C         140.2115  139.3220  164.6872 C.3     1  UNL1        0.0562
     20 C         138.9254  139.3809  163.9176 C.3     1  UNL1        0.0217
     21 C         138.6440  138.3671  162.8486 C.3     1  UNL1        0.0688
     22 N         139.6487  137.2943  162.5491 N.3     1  UNL1       -0.2952
     23 C         140.9349  137.2354  163.3187 C.3     1  UNL1        0.1043
     24 C         141.2162  138.2492  164.3877 C.3     1  UNL1        0.1784
     25 F         142.5024  138.1903  165.1574 F       1  UNL1       -0.2357
     26 H         139.8986  137.3914  161.5649 H       1  UNL1        0.1233
@<TRIPOS>BOND
     1     1     2    1
     2     2     3   ar
     3     3     4   ar
     4     4    17    1
     5    17    18    1
     6    17    19    1
     7    19    20    1
     8    20    21    1
     9    21    22    1
    10    22    23    1
    11    23    24    1
    12    24    25    1
    13     4     5   ar
    14     5     6   ar
    15     6     7   ar
    16     7    12    1
    17    12    13   am
    18    12    14    2
    19     7     8   ar
    20     8     9   ar
    21     9    10    1
    22     9    11   ar
    23    11     2   ar
    24    24    19    1
    25    11     5   ar
    26    22    26    1
    27    13    15    1
    28    13    16    1
@<TRIPOS>MOLECULE
*****
 26 28 0 0 0
SMALL
GASTEIGER

@<TRIPOS>ATOM
      1 C         144.1307  143.1468  165.9046 C.3     1  UNL1        0.0327
      2 C         142.7693  142.5221  165.9853 C.ar    1  UNL1       -0.0009
      3 C         141.8333  142.2962  164.8352 C.ar    1  UNL1        0.0727
      4 N         140.5906  141.6481  165.3694 N.ar    1  UNL1       -0.3135
      5 C         140.7585  141.4734  166.8498 C.ar    1  UNL1        0.1444
      6 N         139.8592  140.8923  167.9002 N.ar    1  UNL1       -0.2237
      7 C         140.3065  140.8514  169.3314 C.ar    1  UNL1        0.1366
      8 C         141.6531  141.3916  169.7120 C.ar    1  UNL1        0.0352
      9 C         142.5524  141.9727  168.6615 C.ar    1  UNL1        0.0619
     10 CL        143.8990  142.5129  169.0422 Cl      1  UNL1       -0.0821
     11 C         142.1051  142.0136  167.2304 C.ar    1  UNL1        0.0422
     12 C         139.4072  140.2702  170.3819 C.2     1  UNL1        0.2606
     13 N         139.9480  139.2747  171.3650 N.am    1  UNL1       -0.3241
     14 O         137.9672  140.6846  170.4494 O.2     1  UNL1       -0.2687
     15 H         140.8932  139.0027  171.3207 H       1  UNL1        0.1453
     16 H         139.3578  138.8932  172.0545 H       1  UNL1        0.1453
     17 C         139.3905  141.2453  164.5647 C.3     1  UNL1        0.0896
     18 C         138.1324  142.0589  164.6356 C.3     1  UNL1        0.0246
     19 C         139.4486  140.0288  163.6890 C.3     1  UNL1        0.0562
     20 C         140.1587  140.0880  162.3690 C.3     1  UNL1        0.0217
     21 C         140.2167  138.8716  161.4934 C.3     1  UNL1        0.0688
     22 N         139.5647  137.5958  161.9377 N.3     1  UNL1       -0.2952
     23 C         138.8546  137.5366  163.2576 C.3     1  UNL1        0.1043
     24 C         138.7966  138.7530  164.1332 C.3     1  UNL1        0.1784
     25 F         138.0865  138.6939  165.4532 F       1  UNL1       -0.2357
     26 H         140.2960  136.8852  161.9645 H       1  UNL1        0.1233
@<TRIPOS>BOND
     1     1     2    1
     2     2     3   ar
     3     3     4   ar
     4     4    17    1
     5    17    18    1
     6    17    19    1
     7    19    20    1
     8    20    21    1
     9    21    22    1
    10    22    23    1
    11    23    24    1
    12    24    25    1
    13     4     5   ar
    14     5     6   ar
    15     6     7   ar
    16     7    12    1
    17    12    13   am
    18    12    14    2
    19     7     8   ar
    20     8     9   ar
    21     9    10    1
    22     9    11   ar
    23    11     2   ar
    24    24    19    1
    25    11     5   ar
    26    22    26    1
    27    13    15    1
    28    13    16    1
@<TRIPOS>MOLECULE
*****
 26 28 0 0 0
SMALL
GASTEIGER

@<TRIPOS>ATOM
      1 C         138.8598  138.5165  164.5508 C.3     1  UNL1        0.0327
      2 C         139.6915  139.6032  165.1652 C.ar    1  UNL1       -0.0009
      3 C         140.7352  140.4192  164.4617 C.ar    1  UNL1        0.0727
      4 N         141.3141  141.3850  165.4526 N.ar    1  UNL1       -0.3135
      5 C         140.6283  141.1659  166.7686 C.ar    1  UNL1        0.1444
      6 N         140.7873  141.8269  168.1056 N.ar    1  UNL1       -0.2237
      7 C         139.9436  141.3867  169.2650 C.ar    1  UNL1        0.1366
      8 C         138.9407  140.2855  169.0873 C.ar    1  UNL1        0.0352
      9 C         138.7816  139.6245  167.7503 C.ar    1  UNL1        0.0619
     10 CL        137.7787  138.5233  167.5726 Cl      1  UNL1       -0.0821
     11 C         139.6254  140.0647  166.5909 C.ar    1  UNL1        0.0422
     12 C         140.1026  142.0477  170.6021 C.2     1  UNL1        0.2606
     13 N         139.7157  143.4862  170.7784 N.am    1  UNL1       -0.3241
     14 O         140.6486  141.2702  171.7629 O.2     1  UNL1       -0.2687
     15 H         139.3573  143.9964  170.0165 H       1  UNL1        0.1453
     16 H         139.8200  143.9200  171.6560 H       1  UNL1        0.1453
     17 C         142.3901  142.3929  165.1763 C.3     1  UNL1        0.0896
     18 C         143.5806  142.4871  166.0837 C.3     1  UNL1        0.0246
     19 C         142.2754  143.3068  163.9922 C.3     1  UNL1        0.0562
     20 C         141.4078  144.5281  164.0687 C.3     1  UNL1        0.0217
     21 C         141.2932  145.4418  162.8847 C.3     1  UNL1        0.0688
     22 N         142.0461  145.1345  161.6244 N.3     1  UNL1       -0.2952
     23 C         142.9138  143.9132  161.5479 C.3     1  UNL1        0.1043
     24 C         143.0284  142.9995  162.7319 C.3     1  UNL1        0.1784
     25 F         143.8960  141.7782  162.6555 F       1  UNL1       -0.2357
     26 H         142.6489  145.9360  161.4386 H       1  UNL1        0.1233
@<TRIPOS>BOND
     1     1     2    1
     2     2     3   ar
     3     3     4   ar
     4     4    17    1
     5    17    18    1
     6    17    19    1
     7    19    20    1
     8    20    21    1
     9    21    22    1
    10    22    23    1
    11    23    24    1
    12    24    25    1
    13     4     5   ar
    14     5     6   ar
    15     6     7   ar
    16     7    12    1
    17    12    13   am
    18    12    14    2
    19     7     8   ar
    20     8     9   ar
    21     9    10    1
    22     9    11   ar
    23    11     2   ar
    24    24    19    1
    25    11     5   ar
    26    22    26    1
    27    13    15    1
    28    13    16    1
