@<TRIPOS>MOLECULE
*****
 34 38 0 0 0
SMALL
GASTEIGER

@<TRIPOS>ATOM
      1 C         140.5320  145.7055  160.3275 C.3     1  UNL1        0.0730
      2 C         141.1860  140.5817  168.5287 C.ar    1  UNL1        0.2057
      3 N         142.0055  140.3715  167.2900 N.ar    1  UNL1       -0.2121
      4 C         141.5735  141.3840  166.2712 C.ar    1  UNL1        0.1182
      5 C         142.0291  141.6528  164.8675 C.ar    1  UNL1        0.0178
      6 C         141.3981  142.7575  164.0727 C.ar    1  UNL1       -0.0230
      7 C         140.3117  143.5933  164.6816 C.ar    1  UNL1       -0.0216
      8 C         139.8560  143.3246  166.0852 C.ar    1  UNL1        0.0346
      9 C         140.4869  142.2199  166.8800 C.ar    1  UNL1        0.1640
     10 O         140.2475  141.7240  168.2753 O.2     1  UNL1       -0.4384
     11 C         139.5551  144.7345  164.0689 C.3     1  UNL1        0.0434
     12 C         139.6982  145.3216  162.6960 C.3     1  UNL1        0.0768
     13 N         140.6332  144.9125  161.5968 N.3     1  UNL1       -0.2720
     14 C         141.6561  143.8153  161.5989 C.3     1  UNL1        0.0768
     15 C         141.9965  142.8562  162.7008 C.3     1  UNL1        0.0434
     16 C         142.4776  138.9086  170.0396 C.3     1  UNL1        0.0102
     17 C         141.2872  139.7887  169.7980 C.3     1  UNL1        0.0853
     18 C         140.9496  145.0914  159.0242 C.3     1  UNL1        0.0294
     19 C         139.9565  144.3206  158.2059 C.3     1  UNL1        0.0666
     20 S         139.7591  142.8542  158.4520 S.3     1  UNL1       -0.0756
     21 C         139.1246  142.3866  159.7282 C.ar    1  UNL1        0.1932
     22 N         137.9997  143.0640  160.4533 N.ar    1  UNL1       -0.1221
     23 N         137.6833  142.2556  161.6766 N.ar    1  UNL1       -0.1282
     24 C         138.6127  141.0786  161.7074 C.ar    1  UNL1        0.1669
     25 N         139.5035  141.1595  160.5032 N.ar    1  UNL1       -0.2884
     26 C         140.5834  140.1846  160.1383 C.3     1  UNL1        0.1340
     27 C         138.6456  140.0084  162.7580 C.ar    1  UNL1        0.0383
     28 C         138.8060  138.5712  162.3599 C.ar    1  UNL1        0.0055
     29 C         138.8389  137.5011  163.4105 C.ar    1  UNL1        0.0321
     30 C         138.7114  137.8681  164.8592 C.ar    1  UNL1        0.1674
     31 F         138.7442  136.7980  165.9098 F       1  UNL1       -0.2018
     32 C         138.5509  139.3054  165.2574 C.ar    1  UNL1        0.1675
     33 F         138.4234  139.6726  166.7061 F       1  UNL1       -0.2018
     34 C         138.5181  140.3755  164.2068 C.ar    1  UNL1        0.0350
@<TRIPOS>BOND
     1    16    17    1
     2    17     2    1
     3     2     3   ar
     4     3     4   ar
     5     4     5   ar
     6     5     6   ar
     7     6     7   ar
     8     7     8   ar
     9     8     9   ar
    10     9    10   ar
    11     7    11    1
    12    11    12    1
    13    12    13    1
    14    13     1    1
    15     1    18    1
    16    18    19    1
    17    19    20    1
    18    20    21    1
    19    21    22   ar
    20    22    23   ar
    21    23    24   ar
    22    24    27    1
    23    27    28   ar
    24    28    29   ar
    25    29    30   ar
    26    30    31    1
    27    30    32   ar
    28    32    33    1
    29    32    34   ar
    30    24    25   ar
    31    25    26    1
    32    13    14    1
    33    14    15    1
    34    10     2   ar
    35    25    21   ar
    36     9     4   ar
    37    34    27   ar
    38    15     6    1
@<TRIPOS>MOLECULE
*****
 34 38 0 0 0
SMALL
GASTEIGER

@<TRIPOS>ATOM
      1 C         140.0272  145.8396  161.2076 C.3     1  UNL1        0.0730
      2 C         141.6897  140.1948  168.9091 C.ar    1  UNL1        0.2057
      3 N         140.3488  140.4887  168.3043 N.ar    1  UNL1       -0.2121
      4 C         140.5585  141.4034  167.1342 C.ar    1  UNL1        0.1182
      5 C         139.6004  142.0243  166.1612 C.ar    1  UNL1        0.0178
      6 C         140.1129  142.9166  165.0697 C.ar    1  UNL1       -0.0230
      7 C         141.5833  143.1879  164.9513 C.ar    1  UNL1       -0.0216
      8 C         142.5414  142.5671  165.9241 C.ar    1  UNL1        0.0346
      9 C         142.0290  141.6748  167.0157 C.ar    1  UNL1        0.1640
     10 O         142.7281  140.9278  168.1126 O.2     1  UNL1       -0.4384
     11 C         142.2990  144.0402  163.9455 C.3     1  UNL1        0.0434
     12 C         141.7209  144.8315  162.8098 C.3     1  UNL1        0.0768
     13 N         140.2845  144.9660  162.3995 N.3     1  UNL1       -0.2720
     14 C         139.0712  144.3425  163.0234 C.3     1  UNL1        0.0768
     15 C         138.9949  143.4304  164.2118 C.3     1  UNL1        0.0434
     16 C         142.9765  138.2328  170.0249 C.3     1  UNL1        0.0102
     17 C         141.9470  139.3211  170.1010 C.3     1  UNL1        0.0853
     18 C         140.6702  145.5200  159.8906 C.3     1  UNL1        0.0294
     19 C         140.1510  144.3854  159.0581 C.3     1  UNL1        0.0666
     20 S         140.8422  143.0545  159.0896 S.3     1  UNL1       -0.0756
     21 C         140.6349  142.1291  160.2518 C.ar    1  UNL1        0.1932
     22 N         139.3187  141.5825  160.7198 N.ar    1  UNL1       -0.1221
     23 N         139.5777  140.7034  161.9072 N.ar    1  UNL1       -0.1282
     24 C         141.0540  140.7066  162.1731 C.ar    1  UNL1        0.1669
     25 N         141.7074  141.5877  161.1500 N.ar    1  UNL1       -0.2884
     26 C         143.1754  141.8767  161.0438 C.3     1  UNL1        0.1340
     27 C         141.7540  139.9598  163.2695 C.ar    1  UNL1        0.0383
     28 C         140.9639  139.1150  164.2246 C.ar    1  UNL1        0.0055
     29 C         141.6639  138.3682  165.3211 C.ar    1  UNL1        0.0321
     30 C         143.1539  138.4661  165.4626 C.ar    1  UNL1        0.1674
     31 F         143.8539  137.7193  166.5590 F       1  UNL1       -0.2018
     32 C         143.9440  139.3109  164.5075 C.ar    1  UNL1        0.1675
     33 F         145.4341  139.4088  164.6489 F       1  UNL1       -0.2018
     34 C         143.2440  140.0577  163.4110 C.ar    1  UNL1        0.0350
@<TRIPOS>BOND
     1    16    17    1
     2    17     2    1
     3     2     3   ar
     4     3     4   ar
     5     4     5   ar
     6     5     6   ar
     7     6     7   ar
     8     7     8   ar
     9     8     9   ar
    10     9    10   ar
    11     7    11    1
    12    11    12    1
    13    12    13    1
    14    13     1    1
    15     1    18    1
    16    18    19    1
    17    19    20    1
    18    20    21    1
    19    21    22   ar
    20    22    23   ar
    21    23    24   ar
    22    24    27    1
    23    27    28   ar
    24    28    29   ar
    25    29    30   ar
    26    30    31    1
    27    30    32   ar
    28    32    33    1
    29    32    34   ar
    30    24    25   ar
    31    25    26    1
    32    13    14    1
    33    14    15    1
    34    10     2   ar
    35    25    21   ar
    36     9     4   ar
    37    34    27   ar
    38    15     6    1
@<TRIPOS>MOLECULE
*****
 34 38 0 0 0
SMALL
GASTEIGER

@<TRIPOS>ATOM
      1 C         142.9823  138.8183  167.3469 C.3     1  UNL1        0.0730
      2 C         142.9446  138.7555  157.6549 C.ar    1  UNL1        0.2057
      3 N         143.8900  139.5263  158.5280 N.ar    1  UNL1       -0.2121
      4 C         143.5358  139.2433  159.9577 C.ar    1  UNL1        0.1182
      5 C         144.1230  139.7246  161.2514 C.ar    1  UNL1        0.0178
      6 C         143.5458  139.2601  162.5558 C.ar    1  UNL1       -0.0230
      7 C         142.3816  138.3145  162.5664 C.ar    1  UNL1       -0.0216
      8 C         141.7943  137.8333  161.2728 C.ar    1  UNL1        0.0346
      9 C         142.3714  138.2976  159.9684 C.ar    1  UNL1        0.1640
     10 O         142.0061  137.9962  158.5451 O.2     1  UNL1       -0.4384
     11 C         141.6602  137.7325  163.7458 C.3     1  UNL1        0.0434
     12 C         141.9250  137.9524  165.2058 C.3     1  UNL1        0.0768
     13 N         142.9765  138.8086  165.8469 N.3     1  UNL1       -0.2720
     14 C         144.0230  139.6564  165.1866 C.3     1  UNL1        0.0768
     15 C         144.2764  139.8573  163.7218 C.3     1  UNL1        0.0434
     16 C         142.2832  139.8641  155.4002 C.3     1  UNL1        0.0102
     17 C         142.9388  138.7458  156.1549 C.3     1  UNL1        0.0853
     18 C         142.6002  140.0639  168.0904 C.3     1  UNL1        0.0294
     19 C         141.5314  140.0118  169.1416 C.3     1  UNL1        0.0666
     20 S         140.1716  140.5775  168.8571 S.3     1  UNL1       -0.0756
     21 C         139.3793  140.0734  167.6874 C.ar    1  UNL1        0.1932
     22 N         138.3303  139.0021  167.7290 N.ar    1  UNL1       -0.1221
     23 N         137.7996  138.8188  166.3381 N.ar    1  UNL1       -0.1282
     24 C         138.5206  139.7769  165.4368 C.ar    1  UNL1        0.1669
     25 N         139.4969  140.5523  166.2708 N.ar    1  UNL1       -0.2884
     26 C         140.4275  141.6193  165.7751 C.3     1  UNL1        0.1340
     27 C         138.3034  139.9323  163.9608 C.ar    1  UNL1        0.0383
     28 C         138.3414  138.7288  163.0663 C.ar    1  UNL1        0.0055
     29 C         138.1242  138.8842  161.5903 C.ar    1  UNL1        0.0321
     30 C         137.8690  140.2430  161.0087 C.ar    1  UNL1        0.1674
     31 F         137.6518  140.3984  159.5327 F       1  UNL1       -0.2018
     32 C         137.8309  141.4465  161.9032 C.ar    1  UNL1        0.1675
     33 F         137.5756  142.8054  161.3217 F       1  UNL1       -0.2018
     34 C         138.0481  141.2911  163.3792 C.ar    1  UNL1        0.0350
@<TRIPOS>BOND
     1    16    17    1
     2    17     2    1
     3     2     3   ar
     4     3     4   ar
     5     4     5   ar
     6     5     6   ar
     7     6     7   ar
     8     7     8   ar
     9     8     9   ar
    10     9    10   ar
    11     7    11    1
    12    11    12    1
    13    12    13    1
    14    13     1    1
    15     1    18    1
    16    18    19    1
    17    19    20    1
    18    20    21    1
    19    21    22   ar
    20    22    23   ar
    21    23    24   ar
    22    24    27    1
    23    27    28   ar
    24    28    29   ar
    25    29    30   ar
    26    30    31    1
    27    30    32   ar
    28    32    33    1
    29    32    34   ar
    30    24    25   ar
    31    25    26    1
    32    13    14    1
    33    14    15    1
    34    10     2   ar
    35    25    21   ar
    36     9     4   ar
    37    34    27   ar
    38    15     6    1
@<TRIPOS>MOLECULE
*****
 34 38 0 0 0
SMALL
GASTEIGER

@<TRIPOS>ATOM
      1 C         143.6309  137.6686  160.7522 C.3     1  UNL1        0.0730
      2 C         140.4067  141.1220  169.2150 C.ar    1  UNL1        0.2057
      3 N         139.6268  140.2747  168.2538 N.ar    1  UNL1       -0.2121
      4 C         140.5113  139.9701  167.0813 C.ar    1  UNL1        0.1182
      5 C         140.2801  139.1777  165.8288 C.ar    1  UNL1        0.0178
      6 C         141.3756  139.0444  164.8128 C.ar    1  UNL1       -0.0230
      7 C         142.7021  139.7033  165.0493 C.ar    1  UNL1       -0.0216
      8 C         142.9333  140.4956  166.3018 C.ar    1  UNL1        0.0346
      9 C         141.8379  140.6290  167.3178 C.ar    1  UNL1        0.1640
     10 O         141.7732  141.3409  168.6365 O.2     1  UNL1       -0.4384
     11 C         143.9194  139.6963  164.1728 C.3     1  UNL1        0.0434
     12 C         144.1106  139.0285  162.8432 C.3     1  UNL1        0.0768
     13 N         143.1319  138.2030  162.0620 N.3     1  UNL1       -0.2720
     14 C         141.7202  137.8412  162.4171 C.3     1  UNL1        0.0768
     15 C         140.9385  138.2156  163.6413 C.3     1  UNL1        0.0434
     16 C         139.7005  143.1314  170.7028 C.3     1  UNL1        0.0102
     17 C         139.9077  141.6565  170.5247 C.3     1  UNL1        0.0853
     18 C         142.7492  137.7123  159.5394 C.3     1  UNL1        0.0294
     19 C         142.6422  138.9739  158.7350 C.3     1  UNL1        0.0666
     20 S         141.2981  139.5888  158.4797 S.3     1  UNL1       -0.0756
     21 C         140.4058  139.9460  159.6313 C.ar    1  UNL1        0.1932
     22 N         139.2577  139.1280  160.1438 N.ar    1  UNL1       -0.1221
     23 N         138.6472  139.8604  161.3018 N.ar    1  UNL1       -0.1282
     24 C         139.4180  141.1310  161.5049 C.ar    1  UNL1        0.1669
     25 N         140.5049  141.1839  160.4725 N.ar    1  UNL1       -0.2884
     26 C         141.5138  142.2820  160.3099 C.3     1  UNL1        0.1340
     27 C         139.1492  142.1669  162.5560 C.ar    1  UNL1        0.0383
     28 C         138.0220  143.1405  162.3785 C.ar    1  UNL1        0.0055
     29 C         137.7532  144.1763  163.4295 C.ar    1  UNL1        0.0321
     30 C         138.6115  144.2387  164.6581 C.ar    1  UNL1        0.1674
     31 F         138.3426  145.2745  165.7091 F       1  UNL1       -0.2018
     32 C         139.7387  143.2650  164.8356 C.ar    1  UNL1        0.1675
     33 F         140.5970  143.3273  166.0641 F       1  UNL1       -0.2018
     34 C         140.0075  142.2292  163.7845 C.ar    1  UNL1        0.0350
@<TRIPOS>BOND
     1    16    17    1
     2    17     2    1
     3     2     3   ar
     4     3     4   ar
     5     4     5   ar
     6     5     6   ar
     7     6     7   ar
     8     7     8   ar
     9     8     9   ar
    10     9    10   ar
    11     7    11    1
    12    11    12    1
    13    12    13    1
    14    13     1    1
    15     1    18    1
    16    18    19    1
    17    19    20    1
    18    20    21    1
    19    21    22   ar
    20    22    23   ar
    21    23    24   ar
    22    24    27    1
    23    27    28   ar
    24    28    29   ar
    25    29    30   ar
    26    30    31    1
    27    30    32   ar
    28    32    33    1
    29    32    34   ar
    30    24    25   ar
    31    25    26    1
    32    13    14    1
    33    14    15    1
    34    10     2   ar
    35    25    21   ar
    36     9     4   ar
    37    34    27   ar
    38    15     6    1
@<TRIPOS>MOLECULE
*****
 34 38 0 0 0
SMALL
GASTEIGER

@<TRIPOS>ATOM
      1 C         139.1580  138.4467  160.0093 C.3     1  UNL1        0.0730
      2 C         141.0117  140.2822  169.3440 C.ar    1  UNL1        0.2057
      3 N         139.7385  140.6023  168.6183 N.ar    1  UNL1       -0.2121
      4 C         139.8876  140.1461  167.1973 C.ar    1  UNL1        0.1182
      5 C         138.9564  140.2012  166.0225 C.ar    1  UNL1        0.0178
      6 C         139.3907  139.6541  164.6950 C.ar    1  UNL1       -0.0230
      7 C         140.7560  139.0521  164.5423 C.ar    1  UNL1       -0.0216
      8 C         141.6871  138.9970  165.7170 C.ar    1  UNL1        0.0346
      9 C         141.2529  139.5440  167.0445 C.ar    1  UNL1        0.1640
     10 O         141.9477  139.6282  168.3713 O.2     1  UNL1       -0.4384
     11 C         141.3830  138.4545  163.3176 C.3     1  UNL1        0.0434
     12 C         140.7995  138.3116  161.9431 C.3     1  UNL1        0.0768
     13 N         139.4449  138.7308  161.4540 N.3     1  UNL1       -0.2720
     14 C         138.3392  139.3965  162.2184 C.3     1  UNL1        0.0768
     15 C         138.3151  139.8074  163.6608 C.3     1  UNL1        0.0434
     16 C         141.7672  141.9286  171.2064 C.3     1  UNL1        0.0102
     17 C         141.2986  140.5663  170.7886 C.3     1  UNL1        0.0853
     18 C         139.3336  139.5268  158.9833 C.3     1  UNL1        0.0294
     19 C         138.2085  140.4753  158.6926 C.3     1  UNL1        0.0666
     20 S         138.3932  141.9475  158.9118 S.3     1  UNL1       -0.0756
     21 C         138.8091  142.4588  160.2593 C.ar    1  UNL1        0.1932
     22 N         137.8882  142.9135  161.3525 N.ar    1  UNL1       -0.1221
     23 N         138.7289  143.3408  162.5190 N.ar    1  UNL1       -0.1282
     24 C         140.1694  143.1502  162.1467 C.ar    1  UNL1        0.1669
     25 N         140.2190  142.6050  160.7501 N.ar    1  UNL1       -0.2884
     26 C         141.4605  142.2657  159.9796 C.3     1  UNL1        0.1340
     27 C         141.3526  143.4517  163.0179 C.ar    1  UNL1        0.0383
     28 C         142.0916  144.7471  162.8573 C.ar    1  UNL1        0.0055
     29 C         143.2748  145.0486  163.7286 C.ar    1  UNL1        0.0321
     30 C         143.7191  144.0548  164.7605 C.ar    1  UNL1        0.1674
     31 F         144.9022  144.3563  165.6318 F       1  UNL1       -0.2018
     32 C         142.9801  142.7594  164.9211 C.ar    1  UNL1        0.1675
     33 F         143.4243  141.7655  165.9530 F       1  UNL1       -0.2018
     34 C         141.7969  142.4578  164.0498 C.ar    1  UNL1        0.0350
@<TRIPOS>BOND
     1    16    17    1
     2    17     2    1
     3     2     3   ar
     4     3     4   ar
     5     4     5   ar
     6     5     6   ar
     7     6     7   ar
     8     7     8   ar
     9     8     9   ar
    10     9    10   ar
    11     7    11    1
    12    11    12    1
    13    12    13    1
    14    13     1    1
    15     1    18    1
    16    18    19    1
    17    19    20    1
    18    20    21    1
    19    21    22   ar
    20    22    23   ar
    21    23    24   ar
    22    24    27    1
    23    27    28   ar
    24    28    29   ar
    25    29    30   ar
    26    30    31    1
    27    30    32   ar
    28    32    33    1
    29    32    34   ar
    30    24    25   ar
    31    25    26    1
    32    13    14    1
    33    14    15    1
    34    10     2   ar
    35    25    21   ar
    36     9     4   ar
    37    34    27   ar
    38    15     6    1
@<TRIPOS>MOLECULE
*****
 34 38 0 0 0
SMALL
GASTEIGER

@<TRIPOS>ATOM
      1 C         144.8483  142.5062  160.2186 C.3     1  UNL1        0.0730
      2 C         140.5868  140.3849  168.6614 C.ar    1  UNL1        0.2057
      3 N         140.3085  141.5891  167.8112 N.ar    1  UNL1       -0.2121
      4 C         141.1901  141.5150  166.6000 C.ar    1  UNL1        0.1182
      5 C         141.3497  142.4243  165.4176 C.ar    1  UNL1        0.0178
      6 C         142.3325  142.0836  164.3368 C.ar    1  UNL1       -0.0230
      7 C         143.1555  140.8338  164.4383 C.ar    1  UNL1       -0.0216
      8 C         142.9960  139.9246  165.6205 C.ar    1  UNL1        0.0346
      9 C         142.0133  140.2651  166.7014 C.ar    1  UNL1        0.1640
     10 O         141.6403  139.5667  167.9754 O.2     1  UNL1       -0.4384
     11 C         144.1844  140.3112  163.4799 C.3     1  UNL1        0.0434
     12 C         144.6443  140.9094  162.1834 C.3     1  UNL1        0.0768
     13 N         144.1888  142.1779  161.5252 N.3     1  UNL1       -0.2720
     14 C         143.1610  143.1616  162.0007 C.3     1  UNL1        0.0768
     15 C         142.3349  143.1196  163.2520 C.3     1  UNL1        0.0434
     16 C         138.4585  140.3014  170.1491 C.3     1  UNL1        0.0102
     17 C         139.9273  140.0566  169.9680 C.3     1  UNL1        0.0853
     18 C         144.1498  142.1977  158.9274 C.3     1  UNL1        0.0294
     19 C         144.0726  140.7826  158.4359 C.3     1  UNL1        0.0666
     20 S         142.7708  140.0395  158.4911 S.3     1  UNL1       -0.0756
     21 C         142.3541  139.3494  159.7561 C.ar    1  UNL1        0.1932
     22 N         142.8990  138.0508  160.2726 N.ar    1  UNL1       -0.1221
     23 N         142.2011  137.7355  161.5624 N.ar    1  UNL1       -0.1282
     24 C         141.2249  138.8393  161.8430 C.ar    1  UNL1        0.1669
     25 N         141.3195  139.8368  160.7266 N.ar    1  UNL1       -0.2884
     26 C         140.5198  141.0998  160.6026 C.3     1  UNL1        0.1340
     27 C         140.3140  138.9298  163.0313 C.ar    1  UNL1        0.0383
     28 C         140.2689  137.8104  164.0287 C.ar    1  UNL1        0.0055
     29 C         139.3580  137.9009  165.2170 C.ar    1  UNL1        0.0321
     30 C         138.4923  139.1108  165.4080 C.ar    1  UNL1        0.1674
     31 F         137.5814  139.2013  166.5963 F       1  UNL1       -0.2018
     32 C         138.5374  140.2302  164.4106 C.ar    1  UNL1        0.1675
     33 F         137.6716  141.4402  164.6015 F       1  UNL1       -0.2018
     34 C         139.4482  140.1397  163.2223 C.ar    1  UNL1        0.0350
@<TRIPOS>BOND
     1    16    17    1
     2    17     2    1
     3     2     3   ar
     4     3     4   ar
     5     4     5   ar
     6     5     6   ar
     7     6     7   ar
     8     7     8   ar
     9     8     9   ar
    10     9    10   ar
    11     7    11    1
    12    11    12    1
    13    12    13    1
    14    13     1    1
    15     1    18    1
    16    18    19    1
    17    19    20    1
    18    20    21    1
    19    21    22   ar
    20    22    23   ar
    21    23    24   ar
    22    24    27    1
    23    27    28   ar
    24    28    29   ar
    25    29    30   ar
    26    30    31    1
    27    30    32   ar
    28    32    33    1
    29    32    34   ar
    30    24    25   ar
    31    25    26    1
    32    13    14    1
    33    14    15    1
    34    10     2   ar
    35    25    21   ar
    36     9     4   ar
    37    34    27   ar
    38    15     6    1
@<TRIPOS>MOLECULE
*****
 34 38 0 0 0
SMALL
GASTEIGER

@<TRIPOS>ATOM
      1 C         142.9212  137.5890  160.1075 C.3     1  UNL1        0.0730
      2 C         140.3001  140.7385  168.8910 C.ar    1  UNL1        0.2057
      3 N         139.3851  140.1611  167.8521 N.ar    1  UNL1       -0.2121
      4 C         140.2114  139.8086  166.6510 C.ar    1  UNL1        0.1182
      5 C         139.8498  139.2067  165.3254 C.ar    1  UNL1        0.0178
      6 C         140.9141  138.9644  164.2964 C.ar    1  UNL1       -0.0230
      7 C         142.3397  139.3240  164.5930 C.ar    1  UNL1       -0.0216
      8 C         142.7014  139.9259  165.9184 C.ar    1  UNL1        0.0346
      9 C         141.6372  140.1683  166.9474 C.ar    1  UNL1        0.1640
     10 O         141.6919  140.7430  168.3319 O.2     1  UNL1       -0.4384
     11 C         143.5459  139.1672  163.7150 C.3     1  UNL1        0.0434
     12 C         143.6240  138.6119  162.3237 C.3     1  UNL1        0.0768
     13 N         142.5155  138.0765  161.4668 N.3     1  UNL1       -0.2720
     14 C         141.0549  137.9639  161.7895 C.3     1  UNL1        0.0768
     15 C         140.3422  138.3591  163.0488 C.3     1  UNL1        0.0434
     16 C         139.8135  142.6982  170.5259 C.3     1  UNL1        0.0102
     17 C         139.8944  141.2259  170.2504 C.3     1  UNL1        0.0853
     18 C         142.8018  138.4963  158.9189 C.3     1  UNL1        0.0294
     19 C         143.6553  139.7263  158.8254 C.3     1  UNL1        0.0666
     20 S         143.0206  141.0624  158.5772 S.3     1  UNL1       -0.0756
     21 C         142.8602  142.0377  159.7055 C.ar    1  UNL1        0.1932
     22 N         143.8574  143.0790  160.1194 N.ar    1  UNL1       -0.1221
     23 N         143.2879  143.8278  161.2877 N.ar    1  UNL1       -0.1282
     24 C         141.9387  143.2493  161.5959 C.ar    1  UNL1        0.1669
     25 N         141.6743  142.1429  160.6181 N.ar    1  UNL1       -0.2884
     26 C         140.4407  141.2914  160.5625 C.3     1  UNL1        0.1340
     27 C         141.0159  143.6983  162.6899 C.ar    1  UNL1        0.0383
     28 C         139.8830  144.6312  162.3797 C.ar    1  UNL1        0.0055
     29 C         138.9602  145.0802  163.4737 C.ar    1  UNL1        0.0321
     30 C         139.1701  144.5963  164.8778 C.ar    1  UNL1        0.1674
     31 F         138.2473  145.0453  165.9718 F       1  UNL1       -0.2018
     32 C         140.3030  143.6634  165.1880 C.ar    1  UNL1        0.1675
     33 F         140.5131  143.1794  166.5922 F       1  UNL1       -0.2018
     34 C         141.2259  143.2144  164.0940 C.ar    1  UNL1        0.0350
@<TRIPOS>BOND
     1    16    17    1
     2    17     2    1
     3     2     3   ar
     4     3     4   ar
     5     4     5   ar
     6     5     6   ar
     7     6     7   ar
     8     7     8   ar
     9     8     9   ar
    10     9    10   ar
    11     7    11    1
    12    11    12    1
    13    12    13    1
    14    13     1    1
    15     1    18    1
    16    18    19    1
    17    19    20    1
    18    20    21    1
    19    21    22   ar
    20    22    23   ar
    21    23    24   ar
    22    24    27    1
    23    27    28   ar
    24    28    29   ar
    25    29    30   ar
    26    30    31    1
    27    30    32   ar
    28    32    33    1
    29    32    34   ar
    30    24    25   ar
    31    25    26    1
    32    13    14    1
    33    14    15    1
    34    10     2   ar
    35    25    21   ar
    36     9     4   ar
    37    34    27   ar
    38    15     6    1
@<TRIPOS>MOLECULE
*****
 34 38 0 0 0
SMALL
GASTEIGER

@<TRIPOS>ATOM
      1 C         143.4370  143.1814  159.5614 C.3     1  UNL1        0.0730
      2 C         140.4329  140.7544  168.4511 C.ar    1  UNL1        0.2057
      3 N         140.3334  142.1151  167.8276 N.ar    1  UNL1       -0.2121
      4 C         140.9179  142.0369  166.4485 C.ar    1  UNL1        0.1182
      5 C         141.0901  143.0667  165.3714 C.ar    1  UNL1        0.0178
      6 C         141.7232  142.6875  164.0655 C.ar    1  UNL1       -0.0230
      7 C         142.1840  141.2786  163.8366 C.ar    1  UNL1       -0.0216
      8 C         142.0119  140.2488  164.9135 C.ar    1  UNL1        0.0346
      9 C         141.3788  140.6279  166.2195 C.ar    1  UNL1        0.1640
     10 O         141.0791  139.8353  167.4572 O.2     1  UNL1       -0.4384
     11 C         142.8349  140.6937  162.6182 C.3     1  UNL1        0.0434
     12 C         143.1856  141.3735  161.3278 C.3     1  UNL1        0.0768
     13 N         142.9721  142.8058  160.9372 N.3     1  UNL1       -0.2720
     14 C         142.3552  143.9123  161.7404 C.3     1  UNL1        0.0768
     15 C         141.7993  143.8597  163.1326 C.3     1  UNL1        0.0434
     16 C         138.5122  140.1240  170.0831 C.3     1  UNL1        0.0102
     17 C         139.9680  140.3788  169.8269 C.3     1  UNL1        0.0853
     18 C         142.5122  143.0309  158.3900 C.3     1  UNL1        0.0294
     19 C         141.2636  143.8582  158.3089 C.3     1  UNL1        0.0666
     20 S         139.9221  143.2104  158.4830 S.3     1  UNL1       -0.0756
     21 C         139.4622  142.7930  159.8484 C.ar    1  UNL1        0.1932
     22 N         138.7859  143.6724  160.8580 N.ar    1  UNL1       -0.1221
     23 N         138.5037  142.8459  162.0776 N.ar    1  UNL1       -0.1282
     24 C         139.0056  141.4558  161.8217 C.ar    1  UNL1        0.1669
     25 N         139.5981  141.4231  160.4440 N.ar    1  UNL1       -0.2884
     26 C         140.2176  140.2299  159.7787 C.3     1  UNL1        0.1340
     27 C         138.9287  140.3010  162.7759 C.ar    1  UNL1        0.0383
     28 C         139.4366  138.9514  162.3627 C.ar    1  UNL1        0.0055
     29 C         139.3596  137.7967  163.3170 C.ar    1  UNL1        0.0321
     30 C         138.7749  137.9914  164.6844 C.ar    1  UNL1        0.1674
     31 F         138.6979  136.8367  165.6387 F       1  UNL1       -0.2018
     32 C         138.2670  139.3410  165.0977 C.ar    1  UNL1        0.1675
     33 F         137.6822  139.5358  166.4651 F       1  UNL1       -0.2018
     34 C         138.3439  140.4957  164.1434 C.ar    1  UNL1        0.0350
@<TRIPOS>BOND
     1    16    17    1
     2    17     2    1
     3     2     3   ar
     4     3     4   ar
     5     4     5   ar
     6     5     6   ar
     7     6     7   ar
     8     7     8   ar
     9     8     9   ar
    10     9    10   ar
    11     7    11    1
    12    11    12    1
    13    12    13    1
    14    13     1    1
    15     1    18    1
    16    18    19    1
    17    19    20    1
    18    20    21    1
    19    21    22   ar
    20    22    23   ar
    21    23    24   ar
    22    24    27    1
    23    27    28   ar
    24    28    29   ar
    25    29    30   ar
    26    30    31    1
    27    30    32   ar
    28    32    33    1
    29    32    34   ar
    30    24    25   ar
    31    25    26    1
    32    13    14    1
    33    14    15    1
    34    10     2   ar
    35    25    21   ar
    36     9     4   ar
    37    34    27   ar
    38    15     6    1
@<TRIPOS>MOLECULE
*****
 34 38 0 0 0
SMALL
GASTEIGER

@<TRIPOS>ATOM
      1 C         142.7894  140.4942  169.6032 C.3     1  UNL1        0.0730
      2 C         144.4243  142.2725  160.2168 C.ar    1  UNL1        0.2057
      3 N         144.5040  143.2738  161.3308 N.ar    1  UNL1       -0.2121
      4 C         144.1761  142.5678  162.6130 C.ar    1  UNL1        0.1182
      5 C         144.0982  143.0483  164.0318 C.ar    1  UNL1        0.0178
      6 C         143.7379  142.0911  165.1291 C.ar    1  UNL1       -0.0230
      7 C         143.4555  140.6535  164.8075 C.ar    1  UNL1       -0.0216
      8 C         143.5334  140.1730  163.3888 C.ar    1  UNL1        0.0346
      9 C         143.8937  141.1301  162.2914 C.ar    1  UNL1        0.1640
     10 O         144.0471  140.9477  160.8105 O.2     1  UNL1       -0.4384
     11 C         143.0816  139.5419  165.7428 C.3     1  UNL1        0.0434
     12 C         142.8977  139.5936  167.2307 C.3     1  UNL1        0.0768
     13 N         143.0424  140.7694  168.1505 N.3     1  UNL1       -0.2720
     14 C         143.4066  142.1841  167.8100 C.3     1  UNL1        0.0768
     15 C         143.7162  142.7723  166.4653 C.3     1  UNL1        0.0434
     16 C         144.5544  141.4413  157.7587 C.3     1  UNL1        0.0102
     17 C         144.6773  142.5477  158.7641 C.3     1  UNL1        0.0853
     18 C         141.6925  139.5547  170.0087 C.3     1  UNL1        0.0294
     19 C         140.4690  140.0829  170.6974 C.3     1  UNL1        0.0666
     20 S         139.2208  140.3489  169.9093 S.3     1  UNL1       -0.0756
     21 C         139.2602  140.3212  168.4101 C.ar    1  UNL1        0.1932
     22 N         138.8383  139.1760  167.5380 N.ar    1  UNL1       -0.1221
     23 N         139.0457  139.5809  166.1087 N.ar    1  UNL1       -0.1282
     24 C         139.5958  140.9763  166.0974 C.ar    1  UNL1        0.1669
     25 N         139.7284  141.4339  167.5198 N.ar    1  UNL1       -0.2884
     26 C         140.2394  142.7696  167.9722 C.3     1  UNL1        0.1340
     27 C         139.9510  141.7742  164.8778 C.ar    1  UNL1        0.0383
     28 C         139.9736  141.1149  163.5307 C.ar    1  UNL1        0.0055
     29 C         140.3288  141.9128  162.3111 C.ar    1  UNL1        0.0321
     30 C         140.6614  143.3698  162.4387 C.ar    1  UNL1        0.1674
     31 F         141.0165  144.1676  161.2191 F       1  UNL1       -0.2018
     32 C         140.6388  144.0290  163.7859 C.ar    1  UNL1        0.1675
     33 F         140.9713  145.4861  163.9135 F       1  UNL1       -0.2018
     34 C         140.2836  143.2312  165.0054 C.ar    1  UNL1        0.0350
@<TRIPOS>BOND
     1    16    17    1
     2    17     2    1
     3     2     3   ar
     4     3     4   ar
     5     4     5   ar
     6     5     6   ar
     7     6     7   ar
     8     7     8   ar
     9     8     9   ar
    10     9    10   ar
    11     7    11    1
    12    11    12    1
    13    12    13    1
    14    13     1    1
    15     1    18    1
    16    18    19    1
    17    19    20    1
    18    20    21    1
    19    21    22   ar
    20    22    23   ar
    21    23    24   ar
    22    24    27    1
    23    27    28   ar
    24    28    29   ar
    25    29    30   ar
    26    30    31    1
    27    30    32   ar
    28    32    33    1
    29    32    34   ar
    30    24    25   ar
    31    25    26    1
    32    13    14    1
    33    14    15    1
    34    10     2   ar
    35    25    21   ar
    36     9     4   ar
    37    34    27   ar
    38    15     6    1
