@<TRIPOS>MOLECULE
*****
 52 57 0 0 0
SMALL
GASTEIGER

@<TRIPOS>ATOM
      1 C         141.4378  143.5384  160.4486 C.3     1  UNL1        0.0840
      2 C         142.5232  143.2310  159.4600 C.3     1  UNL1        0.0376
      3 C         142.7010  144.0966  158.2480 C.3     1  UNL1        0.0738
      4 N         141.7935  145.2698  158.0245 N.3     1  UNL1       -0.2726
      5 C         140.7080  145.5773  159.0131 C.3     1  UNL1        0.0738
      6 C         140.5301  144.7116  160.2251 C.3     1  UNL1        0.0376
      7 N         142.0446  141.9137  164.0182 N.am    1  UNL1       -0.2844
      8 C         142.2225  142.7794  162.8062 C.2     1  UNL1        0.3079
      9 O         143.3628  143.7515  162.7396 O.2     1  UNL1       -0.2522
     10 N         141.2599  142.6728  161.6606 N.am    1  UNL1       -0.2448
     11 H         141.2961  141.2756  164.0618 H       1  UNL1        0.1513
     12 C         140.1196  141.7006  161.7271 C.ar    1  UNL1        0.0574
     13 C         138.7789  142.1502  162.2276 C.ar    1  UNL1        0.0151
     14 C         137.6385  141.1779  162.2940 C.ar    1  UNL1        0.0036
     15 C         137.8389  139.7561  161.8601 C.ar    1  UNL1        0.0297
     16 C         139.1796  139.3065  161.3597 C.ar    1  UNL1        0.1414
     17 F         139.3799  137.8848  160.9257 F       1  UNL1       -0.2041
     18 C         140.3199  140.2787  161.2932 C.ar    1  UNL1        0.0446
     19 C         143.0071  142.0202  165.1637 C.3     1  UNL1        0.1177
     20 C         141.4701  142.1225  169.3918 C.ar    1  UNL1        0.0684
     21 C         142.9073  142.4447  169.1083 C.ar    1  UNL1        0.0100
     22 C         143.4197  142.4106  167.6989 C.ar    1  UNL1       -0.0019
     23 C         142.4947  142.0543  166.5731 C.ar    1  UNL1       -0.0025
     24 C         141.0575  141.7321  166.8566 C.ar    1  UNL1       -0.0019
     25 C         140.5452  141.7662  168.2660 C.ar    1  UNL1        0.0100
     26 N         140.4454  142.1908  172.2106 N.1     1  UNL1       -0.1908
     27 C         140.9577  142.1567  170.8012 C.1     1  UNL1        0.1004
     28 C         141.9713  146.1354  156.8125 C.3     1  UNL1        0.0724
     29 C         141.3517  145.7341  155.5068 C.3     1  UNL1        0.0215
     30 C         139.9296  145.2587  155.4662 C.3     1  UNL1        0.0236
     31 C         140.6319  143.9579  155.7203 C.3     1  UNL1        0.0257
     32 C         139.8398  142.6908  155.8504 C.3     1  UNL1        0.0940
     33 N         138.3453  142.7245  155.7264 N.am    1  UNL1       -0.2759
     34 C         137.5531  141.4574  155.8566 C.2     1  UNL1        0.2534
     35 O         136.0587  141.4912  155.7326 O.2     1  UNL1       -0.2697
     36 C         137.6429  144.0253  155.4723 C.3     1  UNL1        0.0940
     37 C         138.4351  145.2924  155.3422 C.3     1  UNL1        0.0257
     38 C         138.2555  140.1566  156.1107 C.ar    1  UNL1        0.1083
     39 C         138.3149  139.1136  155.0344 C.ar    1  UNL1        0.1467
     40 F         137.6720  139.3713  153.7039 F       1  UNL1       -0.2039
     41 C         139.0173  137.8128  155.2885 C.ar    1  UNL1        0.0299
     42 C         139.6602  137.5550  156.6190 C.ar    1  UNL1        0.0046
     43 C         139.6008  138.5980  157.6953 C.ar    1  UNL1        0.0299
     44 C         138.8984  139.8988  157.4412 C.ar    1  UNL1        0.1467
     45 F         138.8390  140.9419  158.5175 F       1  UNL1       -0.2039
     46 C         139.7211  146.7247  155.2262 C.ar    1  UNL1       -0.0204
     47 C         140.3165  147.3783  154.0144 C.ar    1  UNL1       -0.0041
     48 C         140.1081  148.8443  153.7744 C.ar    1  UNL1        0.0020
     49 C         139.3044  149.6565  154.7461 C.ar    1  UNL1        0.0296
     50 C         138.7090  149.0028  155.9578 C.ar    1  UNL1        0.1398
     51 F         137.9053  149.8152  156.9295 F       1  UNL1       -0.2042
     52 C         138.9174  147.5369  156.1978 C.ar    1  UNL1        0.0254
@<TRIPOS>BOND
     1    26    27    3
     2    27    20    1
     3    20    21   ar
     4    21    22   ar
     5    22    23   ar
     6    23    19    1
     7    19     7    1
     8     7     8   am
     9     8     9    2
    10     8    10   am
    11    10    12    1
    12    12    13   ar
    13    13    14   ar
    14    14    15   ar
    15    15    16   ar
    16    16    17    1
    17    16    18   ar
    18    10     1    1
    19     1     2    1
    20     2     3    1
    21     3     4    1
    22     4    28    1
    23    28    29    1
    24    29    30    1
    25    30    46    1
    26    46    47   ar
    27    47    48   ar
    28    48    49   ar
    29    49    50   ar
    30    50    51    1
    31    50    52   ar
    32    30    31    1
    33    31    32    1
    34    32    33    1
    35    33    34   am
    36    34    35    2
    37    34    38    1
    38    38    39   ar
    39    39    40    1
    40    39    41   ar
    41    41    42   ar
    42    42    43   ar
    43    43    44   ar
    44    44    45    1
    45    33    36    1
    46    36    37    1
    47     4     5    1
    48     5     6    1
    49    23    24   ar
    50    24    25   ar
    51    25    20   ar
    52    18    12   ar
    53     6     1    1
    54    37    30    1
    55    52    46   ar
    56    44    38   ar
    57     7    11    1
@<TRIPOS>MOLECULE
*****
 52 57 0 0 0
SMALL
GASTEIGER

@<TRIPOS>ATOM
      1 C         140.6496  140.2086  158.7672 C.3     1  UNL1        0.0840
      2 C         139.6191  141.2821  158.5785 C.3     1  UNL1        0.0376
      3 C         138.8991  141.8478  159.7666 C.3     1  UNL1        0.0738
      4 N         139.2096  141.3399  161.1434 N.3     1  UNL1       -0.2726
      5 C         140.2401  140.2663  161.3322 C.3     1  UNL1        0.0738
      6 C         140.9601  139.7007  160.1440 C.3     1  UNL1        0.0376
      7 N         141.6472  137.7729  155.7970 N.am    1  UNL1       -0.2844
      8 C         140.9272  138.3385  156.9851 C.2     1  UNL1        0.3079
      9 O         139.7648  137.5997  157.5793 O.2     1  UNL1       -0.2522
     10 N         141.3696  139.6430  157.5790 N.am    1  UNL1       -0.2448
     11 H         142.4101  138.2578  155.4070 H       1  UNL1        0.1513
     12 C         142.5319  140.3818  156.9848 C.ar    1  UNL1        0.0574
     13 C         143.9100  140.1858  157.5437 C.ar    1  UNL1        0.0151
     14 C         145.0724  140.9247  156.9494 C.ar    1  UNL1        0.0036
     15 C         144.8566  141.8594  155.7963 C.ar    1  UNL1        0.0297
     16 C         143.4785  142.0553  155.2375 C.ar    1  UNL1        0.1414
     17 F         143.2627  142.9900  154.0844 F       1  UNL1       -0.2041
     18 C         142.3162  141.3165  155.8317 C.ar    1  UNL1        0.0446
     19 C         141.2048  136.4685  155.2030 C.3     1  UNL1        0.1177
     20 C         142.9571  132.6043  156.7022 C.ar    1  UNL1        0.0684
     21 C         143.4382  133.9116  157.2584 C.ar    1  UNL1        0.0100
     22 C         142.8541  135.1997  156.7587 C.ar    1  UNL1       -0.0019
     23 C         141.7889  135.1804  155.7028 C.ar    1  UNL1       -0.0025
     24 C         141.3078  133.8731  155.1466 C.ar    1  UNL1       -0.0019
     25 C         141.8919  132.5850  155.6463 C.ar    1  UNL1        0.0100
     26 N         144.1253  130.0281  157.7017 N.1     1  UNL1       -0.1908
     27 C         143.5412  131.3162  157.2020 C.1     1  UNL1        0.1004
     28 C         138.4896  141.9055  162.3316 C.3     1  UNL1        0.0724
     29 C         138.9142  143.2235  162.9083 C.3     1  UNL1        0.0215
     30 C         140.2569  143.3579  163.5633 C.3     1  UNL1        0.0236
     31 C         139.5017  142.6632  164.6574 C.3     1  UNL1        0.0257
     32 C         140.1896  142.3280  165.9476 C.3     1  UNL1        0.0940
     33 N         141.6326  142.6874  166.1436 N.am    1  UNL1       -0.2759
     34 C         142.3204  142.3522  167.4338 C.2     1  UNL1        0.2534
     35 O         143.7635  142.7116  167.6297 O.2     1  UNL1       -0.2697
     36 C         142.3878  143.3821  165.0495 C.3     1  UNL1        0.0940
     37 C         141.6999  143.7173  163.7593 C.3     1  UNL1        0.0257
     38 C         141.5652  141.6575  168.5279 C.ar    1  UNL1        0.1083
     39 C         141.8979  140.2392  168.8852 C.ar    1  UNL1        0.1467
     40 F         142.9858  139.5155  168.1484 F       1  UNL1       -0.2039
     41 C         141.1427  139.5445  169.9793 C.ar    1  UNL1        0.0299
     42 C         140.0548  140.2682  170.7161 C.ar    1  UNL1        0.0046
     43 C         139.7221  141.6865  170.3588 C.ar    1  UNL1        0.0299
     44 C         140.4773  142.3812  169.2647 C.ar    1  UNL1        0.1467
     45 F         140.1448  143.7995  168.9073 F       1  UNL1       -0.2039
     46 C         140.5457  144.0059  162.2417 C.ar    1  UNL1       -0.0204
     47 C         139.7080  145.1583  161.7724 C.ar    1  UNL1       -0.0041
     48 C         139.9968  145.8063  160.4508 C.ar    1  UNL1        0.0020
     49 C         141.1233  145.3019  159.5985 C.ar    1  UNL1        0.0296
     50 C         141.9611  144.1495  160.0678 C.ar    1  UNL1        0.1398
     51 F         143.0876  143.6452  159.2154 F       1  UNL1       -0.2042
     52 C         141.6723  143.5015  161.3894 C.ar    1  UNL1        0.0254
@<TRIPOS>BOND
     1    26    27    3
     2    27    20    1
     3    20    21   ar
     4    21    22   ar
     5    22    23   ar
     6    23    19    1
     7    19     7    1
     8     7     8   am
     9     8     9    2
    10     8    10   am
    11    10    12    1
    12    12    13   ar
    13    13    14   ar
    14    14    15   ar
    15    15    16   ar
    16    16    17    1
    17    16    18   ar
    18    10     1    1
    19     1     2    1
    20     2     3    1
    21     3     4    1
    22     4    28    1
    23    28    29    1
    24    29    30    1
    25    30    46    1
    26    46    47   ar
    27    47    48   ar
    28    48    49   ar
    29    49    50   ar
    30    50    51    1
    31    50    52   ar
    32    30    31    1
    33    31    32    1
    34    32    33    1
    35    33    34   am
    36    34    35    2
    37    34    38    1
    38    38    39   ar
    39    39    40    1
    40    39    41   ar
    41    41    42   ar
    42    42    43   ar
    43    43    44   ar
    44    44    45    1
    45    33    36    1
    46    36    37    1
    47     4     5    1
    48     5     6    1
    49    23    24   ar
    50    24    25   ar
    51    25    20   ar
    52    18    12   ar
    53     6     1    1
    54    37    30    1
    55    52    46   ar
    56    44    38   ar
    57     7    11    1
@<TRIPOS>MOLECULE
*****
 52 57 0 0 0
SMALL
GASTEIGER

@<TRIPOS>ATOM
      1 C         140.5016  140.3091  158.6415 C.3     1  UNL1        0.0840
      2 C         140.8333  139.7367  159.9877 C.3     1  UNL1        0.0376
      3 C         140.1630  140.2743  161.2172 C.3     1  UNL1        0.0738
      4 N         139.1609  141.3843  161.1005 N.3     1  UNL1       -0.2726
      5 C         138.8291  141.9568  159.7542 C.3     1  UNL1        0.0738
      6 C         139.4994  141.4192  158.5247 C.3     1  UNL1        0.0376
      7 N         141.4767  137.8753  155.6623 N.am    1  UNL1       -0.2844
      8 C         140.8063  138.4129  156.8917 C.2     1  UNL1        0.3079
      9 O         139.7705  137.5920  157.6009 O.2     1  UNL1       -0.2522
     10 N         141.1719  139.7715  157.4120 N.am    1  UNL1       -0.2448
     11 H         142.1566  138.4141  155.1968 H       1  UNL1        0.1513
     12 C         142.2078  140.5924  156.7028 C.ar    1  UNL1        0.0574
     13 C         141.8498  141.3288  155.4460 C.ar    1  UNL1        0.0151
     14 C         142.8858  142.1497  154.7368 C.ar    1  UNL1        0.0036
     15 C         144.2796  142.2343  155.2844 C.ar    1  UNL1        0.0297
     16 C         144.6376  141.4980  156.5413 C.ar    1  UNL1        0.1414
     17 F         146.0315  141.5826  157.0889 F       1  UNL1       -0.2041
     18 C         143.6017  140.6771  157.2505 C.ar    1  UNL1        0.0446
     19 C         141.1112  136.5168  155.1420 C.3     1  UNL1        0.1177
     20 C         143.1566  132.8565  156.7756 C.ar    1  UNL1        0.0684
     21 C         143.5992  134.2212  157.2132 C.ar    1  UNL1        0.0100
     22 C         142.9174  135.4413  156.6686 C.ar    1  UNL1       -0.0019
     23 C         141.7930  135.2967  155.6865 C.ar    1  UNL1       -0.0025
     24 C         141.3503  133.9320  155.2489 C.ar    1  UNL1       -0.0019
     25 C         142.0321  132.7119  155.7935 C.ar    1  UNL1        0.0100
     26 N         144.5202  130.4163  157.8646 N.1     1  UNL1       -0.1908
     27 C         143.8384  131.6364  157.3201 C.1     1  UNL1        0.1004
     28 C         138.4906  141.9219  162.3299 C.3     1  UNL1        0.0724
     29 C         138.9185  143.2410  162.9015 C.3     1  UNL1        0.0215
     30 C         140.2606  143.3740  163.5582 C.3     1  UNL1        0.0236
     31 C         139.5043  142.6767  164.6499 C.3     1  UNL1        0.0257
     32 C         140.1908  142.3384  165.9400 C.3     1  UNL1        0.0940
     33 N         141.6336  142.6975  166.1383 N.am    1  UNL1       -0.2759
     34 C         142.3202  142.3592  167.4284 C.2     1  UNL1        0.2534
     35 O         143.7630  142.7183  167.6267 O.2     1  UNL1       -0.2697
     36 C         142.3899  143.3947  165.0466 C.3     1  UNL1        0.0940
     37 C         141.7034  143.7330  163.7565 C.3     1  UNL1        0.0257
     38 C         141.5639  141.6620  168.5201 C.ar    1  UNL1        0.1083
     39 C         140.4742  142.3833  169.2564 C.ar    1  UNL1        0.1467
     40 F         140.1407  143.8019  168.9010 F       1  UNL1       -0.2039
     41 C         139.7179  141.6860  170.3481 C.ar    1  UNL1        0.0299
     42 C         140.0514  140.2674  170.7035 C.ar    1  UNL1        0.0046
     43 C         141.1411  139.5460  169.9672 C.ar    1  UNL1        0.0299
     44 C         141.8974  140.2433  168.8755 C.ar    1  UNL1        0.1467
     45 F         142.9871  139.5220  168.1392 F       1  UNL1       -0.2039
     46 C         140.5507  144.0251  162.2384 C.ar    1  UNL1       -0.0204
     47 C         139.7344  145.1993  161.7858 C.ar    1  UNL1       -0.0041
     48 C         140.0245  145.8504  160.4660 C.ar    1  UNL1        0.0020
     49 C         141.1310  145.3273  159.5988 C.ar    1  UNL1        0.0296
     50 C         141.9473  144.1531  160.0514 C.ar    1  UNL1        0.1398
     51 F         143.0538  143.6301  159.1841 F       1  UNL1       -0.2042
     52 C         141.6572  143.5020  161.3712 C.ar    1  UNL1        0.0254
@<TRIPOS>BOND
     1    26    27    3
     2    27    20    1
     3    20    21   ar
     4    21    22   ar
     5    22    23   ar
     6    23    19    1
     7    19     7    1
     8     7     8   am
     9     8     9    2
    10     8    10   am
    11    10    12    1
    12    12    13   ar
    13    13    14   ar
    14    14    15   ar
    15    15    16   ar
    16    16    17    1
    17    16    18   ar
    18    10     1    1
    19     1     2    1
    20     2     3    1
    21     3     4    1
    22     4    28    1
    23    28    29    1
    24    29    30    1
    25    30    46    1
    26    46    47   ar
    27    47    48   ar
    28    48    49   ar
    29    49    50   ar
    30    50    51    1
    31    50    52   ar
    32    30    31    1
    33    31    32    1
    34    32    33    1
    35    33    34   am
    36    34    35    2
    37    34    38    1
    38    38    39   ar
    39    39    40    1
    40    39    41   ar
    41    41    42   ar
    42    42    43   ar
    43    43    44   ar
    44    44    45    1
    45    33    36    1
    46    36    37    1
    47     4     5    1
    48     5     6    1
    49    23    24   ar
    50    24    25   ar
    51    25    20   ar
    52    18    12   ar
    53     6     1    1
    54    37    30    1
    55    52    46   ar
    56    44    38   ar
    57     7    11    1
@<TRIPOS>MOLECULE
*****
 52 57 0 0 0
SMALL
GASTEIGER

@<TRIPOS>ATOM
      1 C         139.9384  143.0680  158.9793 C.3     1  UNL1        0.0840
      2 C         138.6151  142.4959  159.3934 C.3     1  UNL1        0.0376
      3 C         138.2991  142.3136  160.8484 C.3     1  UNL1        0.0738
      4 N         139.3064  142.7035  161.8892 N.3     1  UNL1       -0.2726
      5 C         140.6298  143.2756  161.4751 C.3     1  UNL1        0.0738
      6 C         140.9458  143.4579  160.0201 C.3     1  UNL1        0.0376
      7 N         141.4489  142.4430  155.3629 N.am    1  UNL1       -0.2844
      8 C         141.1329  142.2607  156.8179 C.2     1  UNL1        0.3079
      9 O         141.6955  141.0889  157.5665 O.2     1  UNL1       -0.2522
     10 N         140.2544  143.2503  157.5243 N.am    1  UNL1       -0.2448
     11 H         141.0797  143.2120  154.8716 H       1  UNL1        0.1513
     12 C         139.6918  144.4220  156.7757 C.ar    1  UNL1        0.0574
     13 C         140.3132  145.7786  156.9294 C.ar    1  UNL1        0.0151
     14 C         139.7506  146.9504  156.1807 C.ar    1  UNL1        0.0036
     15 C         138.5666  146.7656  155.2784 C.ar    1  UNL1        0.0297
     16 C         137.9453  145.4091  155.1248 C.ar    1  UNL1        0.1414
     17 F         136.7613  145.2243  154.2225 F       1  UNL1       -0.2041
     18 C         138.5078  144.2373  155.8734 C.ar    1  UNL1        0.0446
     19 C         142.3275  141.4534  154.6566 C.3     1  UNL1        0.1177
     20 C         146.7946  141.6466  155.1639 C.ar    1  UNL1        0.0684
     21 C         146.0445  140.4174  155.5839 C.ar    1  UNL1        0.0100
     22 C         144.5555  140.3530  155.4148 C.ar    1  UNL1       -0.0019
     23 C         143.8165  141.5178  154.8257 C.ar    1  UNL1       -0.0025
     24 C         144.5666  142.7470  154.4057 C.ar    1  UNL1       -0.0019
     25 C         146.0556  142.8114  154.5748 C.ar    1  UNL1        0.0100
     26 N         149.7727  141.7754  155.5021 N.1     1  UNL1       -0.1908
     27 C         148.2836  141.7110  155.3330 C.1     1  UNL1        0.1004
     28 C         138.9904  142.5212  163.3442 C.3     1  UNL1        0.0724
     29 C         138.6547  141.1586  163.8738 C.3     1  UNL1        0.0215
     30 C         139.7461  140.2559  164.3676 C.3     1  UNL1        0.0236
     31 C         139.6532  141.2083  165.5227 C.3     1  UNL1        0.0257
     32 C         140.5523  141.0361  166.7109 C.3     1  UNL1        0.0940
     33 N         141.5444  139.9116  166.7440 N.am    1  UNL1       -0.2759
     34 C         142.4436  139.7395  167.9323 C.2     1  UNL1        0.2534
     35 O         143.4357  138.6149  167.9653 O.2     1  UNL1       -0.2697
     36 C         141.6374  138.9593  165.5889 C.3     1  UNL1        0.0940
     37 C         140.7382  139.1314  164.4007 C.3     1  UNL1        0.0257
     38 C         142.3507  140.6918  169.0874 C.ar    1  UNL1        0.1083
     39 C         141.5845  140.3059  170.3178 C.ar    1  UNL1        0.1467
     40 F         140.9113  138.9675  170.3932 F       1  UNL1       -0.2039
     41 C         141.4915  141.2583  171.4729 C.ar    1  UNL1        0.0299
     42 C         142.1647  142.5967  171.3976 C.ar    1  UNL1        0.0046
     43 C         142.9309  142.9826  170.1671 C.ar    1  UNL1        0.0299
     44 C         143.0239  142.0302  169.0120 C.ar    1  UNL1        0.1467
     45 F         143.7900  142.4161  167.7815 F       1  UNL1       -0.2039
     46 C         139.4600  139.6171  163.0409 C.ar    1  UNL1       -0.0204
     47 C         138.0801  139.1169  162.7314 C.ar    1  UNL1       -0.0041
     48 C         137.7940  138.4780  161.4048 C.ar    1  UNL1        0.0020
     49 C         138.8877  138.3394  160.3877 C.ar    1  UNL1        0.0296
     50 C         140.2676  138.8396  160.6972 C.ar    1  UNL1        0.1398
     51 F         141.3612  138.7008  159.6800 F       1  UNL1       -0.2042
     52 C         140.5537  139.4784  162.0238 C.ar    1  UNL1        0.0254
@<TRIPOS>BOND
     1    26    27    3
     2    27    20    1
     3    20    21   ar
     4    21    22   ar
     5    22    23   ar
     6    23    19    1
     7    19     7    1
     8     7     8   am
     9     8     9    2
    10     8    10   am
    11    10    12    1
    12    12    13   ar
    13    13    14   ar
    14    14    15   ar
    15    15    16   ar
    16    16    17    1
    17    16    18   ar
    18    10     1    1
    19     1     2    1
    20     2     3    1
    21     3     4    1
    22     4    28    1
    23    28    29    1
    24    29    30    1
    25    30    46    1
    26    46    47   ar
    27    47    48   ar
    28    48    49   ar
    29    49    50   ar
    30    50    51    1
    31    50    52   ar
    32    30    31    1
    33    31    32    1
    34    32    33    1
    35    33    34   am
    36    34    35    2
    37    34    38    1
    38    38    39   ar
    39    39    40    1
    40    39    41   ar
    41    41    42   ar
    42    42    43   ar
    43    43    44   ar
    44    44    45    1
    45    33    36    1
    46    36    37    1
    47     4     5    1
    48     5     6    1
    49    23    24   ar
    50    24    25   ar
    51    25    20   ar
    52    18    12   ar
    53     6     1    1
    54    37    30    1
    55    52    46   ar
    56    44    38   ar
    57     7    11    1
@<TRIPOS>MOLECULE
*****
 52 57 0 0 0
SMALL
GASTEIGER

@<TRIPOS>ATOM
      1 C         139.2021  141.1171  158.0747 C.3     1  UNL1        0.0840
      2 C         138.6485  140.6968  159.4038 C.3     1  UNL1        0.0376
      3 C         139.0871  141.3986  160.6549 C.3     1  UNL1        0.0738
      4 N         140.0793  142.5208  160.5767 N.3     1  UNL1       -0.2726
      5 C         140.6330  142.9412  159.2475 C.3     1  UNL1        0.0738
      6 C         140.1944  142.2394  157.9964 C.3     1  UNL1        0.0376
      7 N         137.0139  140.0667  154.9348 N.am    1  UNL1       -0.2844
      8 C         137.4525  140.7686  156.1859 C.2     1  UNL1        0.3079
      9 O         136.5802  141.8235  156.7991 O.2     1  UNL1       -0.2522
     10 N         138.7635  140.4153  156.8236 N.am    1  UNL1       -0.2448
     11 H         137.5864  139.3743  154.5323 H       1  UNL1        0.1513
     12 C         139.6357  139.3604  156.2104 C.ar    1  UNL1        0.0574
     13 C         139.6292  137.9665  156.7645 C.ar    1  UNL1        0.0151
     14 C         140.5015  136.9115  156.1512 C.ar    1  UNL1        0.0036
     15 C         141.3803  137.2504  154.9838 C.ar    1  UNL1        0.0297
     16 C         141.3868  138.6442  154.4297 C.ar    1  UNL1        0.1414
     17 F         142.2656  138.9831  153.2623 F       1  UNL1       -0.2041
     18 C         140.5146  139.6992  155.0429 C.ar    1  UNL1        0.0446
     19 C         135.7030  140.4199  154.2971 C.3     1  UNL1        0.1177
     20 C         131.8669  139.8671  156.5838 C.ar    1  UNL1        0.0684
     21 C         132.9365  138.8175  156.6485 C.ar    1  UNL1        0.0100
     22 C         134.2152  139.0018  155.8862 C.ar    1  UNL1       -0.0019
     23 C         134.4243  140.2357  155.0593 C.ar    1  UNL1       -0.0025
     24 C         133.3547  141.2852  154.9946 C.ar    1  UNL1       -0.0019
     25 C         132.0760  141.1010  155.7568 C.ar    1  UNL1        0.0100
     26 N         129.3095  139.4986  158.1082 N.1     1  UNL1       -0.1908
     27 C         130.5882  139.6829  157.3460 C.1     1  UNL1        0.1004
     28 C         140.5180  143.2226  161.8277 C.3     1  UNL1        0.0724
     29 C         141.9593  143.1871  162.2416 C.3     1  UNL1        0.0215
     30 C         142.4870  142.0199  163.0221 C.3     1  UNL1        0.0236
     31 C         141.7704  142.7599  164.1125 C.3     1  UNL1        0.0257
     32 C         141.7668  142.2165  165.5106 C.3     1  UNL1        0.0940
     33 N         142.4797  140.9331  165.8183 N.am    1  UNL1       -0.2759
     34 C         142.4760  140.3897  167.2164 C.2     1  UNL1        0.2534
     35 O         143.1889  139.1063  167.5240 O.2     1  UNL1       -0.2697
     36 C         143.1962  140.1931  164.7279 C.3     1  UNL1        0.0940
     37 C         143.1998  140.7365  163.3298 C.3     1  UNL1        0.0257
     38 C         141.7595  141.1297  168.3068 C.ar    1  UNL1        0.1083
     39 C         142.4449  142.2532  169.0264 C.ar    1  UNL1        0.1467
     40 F         143.8469  142.6368  168.6557 F       1  UNL1       -0.2039
     41 C         141.7284  142.9932  170.1168 C.ar    1  UNL1        0.0299
     42 C         140.3264  142.6096  170.4876 C.ar    1  UNL1        0.0046
     43 C         139.6410  141.4861  169.7680 C.ar    1  UNL1        0.0299
     44 C         140.3575  140.7461  168.6776 C.ar    1  UNL1        0.1467
     45 F         139.6722  139.6226  167.9579 F       1  UNL1       -0.2039
     46 C         143.0202  141.6853  161.6606 C.ar    1  UNL1       -0.0204
     47 C         143.9047  142.6601  160.9411 C.ar    1  UNL1       -0.0041
     48 C         144.4379  142.3255  159.5796 C.ar    1  UNL1        0.0020
     49 C         144.0867  141.0162  158.9376 C.ar    1  UNL1        0.0296
     50 C         143.2023  140.0414  159.6570 C.ar    1  UNL1        0.1398
     51 F         142.8511  138.7320  159.0149 F       1  UNL1       -0.2042
     52 C         142.6690  140.3760  161.0185 C.ar    1  UNL1        0.0254
@<TRIPOS>BOND
     1    26    27    3
     2    27    20    1
     3    20    21   ar
     4    21    22   ar
     5    22    23   ar
     6    23    19    1
     7    19     7    1
     8     7     8   am
     9     8     9    2
    10     8    10   am
    11    10    12    1
    12    12    13   ar
    13    13    14   ar
    14    14    15   ar
    15    15    16   ar
    16    16    17    1
    17    16    18   ar
    18    10     1    1
    19     1     2    1
    20     2     3    1
    21     3     4    1
    22     4    28    1
    23    28    29    1
    24    29    30    1
    25    30    46    1
    26    46    47   ar
    27    47    48   ar
    28    48    49   ar
    29    49    50   ar
    30    50    51    1
    31    50    52   ar
    32    30    31    1
    33    31    32    1
    34    32    33    1
    35    33    34   am
    36    34    35    2
    37    34    38    1
    38    38    39   ar
    39    39    40    1
    40    39    41   ar
    41    41    42   ar
    42    42    43   ar
    43    43    44   ar
    44    44    45    1
    45    33    36    1
    46    36    37    1
    47     4     5    1
    48     5     6    1
    49    23    24   ar
    50    24    25   ar
    51    25    20   ar
    52    18    12   ar
    53     6     1    1
    54    37    30    1
    55    52    46   ar
    56    44    38   ar
    57     7    11    1
@<TRIPOS>MOLECULE
*****
 52 57 0 0 0
SMALL
GASTEIGER

@<TRIPOS>ATOM
      1 C         140.4210  143.8192  158.0502 C.3     1  UNL1        0.0840
      2 C         139.9798  144.3765  159.3711 C.3     1  UNL1        0.0376
      3 C         140.6102  143.8854  160.6405 C.3     1  UNL1        0.0738
      4 N         141.6817  142.8371  160.5890 N.3     1  UNL1       -0.2726
      5 C         142.1230  142.2797  159.2681 C.3     1  UNL1        0.0738
      6 C         141.4926  142.7708  157.9987 C.3     1  UNL1        0.0376
      7 N         139.7758  145.9460  154.7622 N.am    1  UNL1       -0.2844
      8 C         140.4062  145.4549  156.0316 C.2     1  UNL1        0.3079
      9 O         141.6520  146.1084  156.5520 O.2     1  UNL1       -0.2522
     10 N         139.7906  144.3103  156.7807 N.am    1  UNL1       -0.2448
     11 H         138.9581  145.5171  154.4207 H       1  UNL1        0.1513
     12 C         138.5448  143.6569  156.2604 C.ar    1  UNL1        0.0574
     13 C         137.8782  144.1888  155.0264 C.ar    1  UNL1        0.0151
     14 C         136.6323  143.5352  154.5060 C.ar    1  UNL1        0.0036
     15 C         136.0530  142.3499  155.2197 C.ar    1  UNL1        0.0297
     16 C         136.7195  141.8181  156.4538 C.ar    1  UNL1        0.1414
     17 F         136.1402  140.6328  157.1674 F       1  UNL1       -0.2041
     18 C         137.9654  142.4715  156.9741 C.ar    1  UNL1        0.0446
     19 C         140.3913  147.0905  154.0131 C.3     1  UNL1        0.1177
     20 C         138.9720  151.2943  154.7644 C.ar    1  UNL1        0.0684
     21 C         139.9130  151.0117  153.6310 C.ar    1  UNL1        0.0100
     22 C         140.3861  149.6104  153.3806 C.ar    1  UNL1       -0.0019
     23 C         139.9182  148.4918  154.2635 C.ar    1  UNL1       -0.0025
     24 C         138.9772  148.7744  155.3969 C.ar    1  UNL1       -0.0019
     25 C         138.5041  150.1756  155.6473 C.ar    1  UNL1        0.0100
     26 N         138.0258  154.0967  155.2652 N.1     1  UNL1       -0.1908
     27 C         138.4989  152.6955  155.0148 C.1     1  UNL1        0.1004
     28 C         142.3121  142.3460  161.8585 C.3     1  UNL1        0.0724
     29 C         142.2864  140.8837  162.1918 C.3     1  UNL1        0.0215
     30 C         141.2607  140.3503  163.1475 C.3     1  UNL1        0.0236
     31 C         142.1735  141.0513  164.1095 C.3     1  UNL1        0.0257
     32 C         141.8673  141.0397  165.5779 C.3     1  UNL1        0.0940
     33 N         140.6485  140.3271  166.0843 N.am    1  UNL1       -0.2759
     34 C         140.3423  140.3156  167.5527 C.2     1  UNL1        0.2534
     35 O         139.1233  139.6030  168.0590 O.2     1  UNL1       -0.2697
     36 C         139.7357  139.6261  165.1223 C.3     1  UNL1        0.0940
     37 C         140.0419  139.6377  163.6539 C.3     1  UNL1        0.0257
     38 C         141.2551  141.0166  168.5147 C.ar    1  UNL1        0.1083
     39 C         142.3802  140.2662  169.1633 C.ar    1  UNL1        0.1467
     40 F         142.5927  138.8147  168.8501 F       1  UNL1       -0.2039
     41 C         143.2930  140.9672  170.1253 C.ar    1  UNL1        0.0299
     42 C         143.0806  142.4187  170.4386 C.ar    1  UNL1        0.0046
     43 C         141.9554  143.1691  169.7899 C.ar    1  UNL1        0.0299
     44 C         141.0426  142.4681  168.8280 C.ar    1  UNL1        0.1467
     45 F         139.9174  143.2184  168.1792 F       1  UNL1       -0.2039
     46 C         140.7042  139.8345  161.8536 C.ar    1  UNL1       -0.0204
     47 C         141.5471  138.9652  160.9681 C.ar    1  UNL1       -0.0041
     48 C         140.9905  138.4495  159.6742 C.ar    1  UNL1        0.0020
     49 C         139.5912  138.8030  159.2657 C.ar    1  UNL1        0.0296
     50 C         138.7484  139.6723  160.1512 C.ar    1  UNL1        0.1398
     51 F         137.3490  140.0258  159.7426 F       1  UNL1       -0.2042
     52 C         139.3049  140.1880  161.4451 C.ar    1  UNL1        0.0254
@<TRIPOS>BOND
     1    26    27    3
     2    27    20    1
     3    20    21   ar
     4    21    22   ar
     5    22    23   ar
     6    23    19    1
     7    19     7    1
     8     7     8   am
     9     8     9    2
    10     8    10   am
    11    10    12    1
    12    12    13   ar
    13    13    14   ar
    14    14    15   ar
    15    15    16   ar
    16    16    17    1
    17    16    18   ar
    18    10     1    1
    19     1     2    1
    20     2     3    1
    21     3     4    1
    22     4    28    1
    23    28    29    1
    24    29    30    1
    25    30    46    1
    26    46    47   ar
    27    47    48   ar
    28    48    49   ar
    29    49    50   ar
    30    50    51    1
    31    50    52   ar
    32    30    31    1
    33    31    32    1
    34    32    33    1
    35    33    34   am
    36    34    35    2
    37    34    38    1
    38    38    39   ar
    39    39    40    1
    40    39    41   ar
    41    41    42   ar
    42    42    43   ar
    43    43    44   ar
    44    44    45    1
    45    33    36    1
    46    36    37    1
    47     4     5    1
    48     5     6    1
    49    23    24   ar
    50    24    25   ar
    51    25    20   ar
    52    18    12   ar
    53     6     1    1
    54    37    30    1
    55    52    46   ar
    56    44    38   ar
    57     7    11    1
@<TRIPOS>MOLECULE
*****
 52 57 0 0 0
SMALL
GASTEIGER

@<TRIPOS>ATOM
      1 C         143.1878  140.6443  158.2938 C.3     1  UNL1        0.0840
      2 C         142.4576  141.9278  158.5573 C.3     1  UNL1        0.0376
      3 C         142.2245  142.3821  159.9677 C.3     1  UNL1        0.0738
      4 N         142.7215  141.5530  161.1146 N.3     1  UNL1       -0.2726
      5 C         143.4518  140.2694  160.8511 C.3     1  UNL1        0.0738
      6 C         143.6849  139.8151  159.4407 C.3     1  UNL1        0.0376
      7 N         142.9067  138.5526  154.9329 N.am    1  UNL1       -0.2844
      8 C         142.6735  139.0069  156.3433 C.2     1  UNL1        0.3079
      9 O         141.6930  138.2781  157.2136 O.2     1  UNL1       -0.2522
     10 N         143.4210  140.1900  156.8834 N.am    1  UNL1       -0.2448
     11 H         143.5502  139.0309  154.3617 H       1  UNL1        0.1513
     12 C         144.4015  140.9188  156.0131 C.ar    1  UNL1        0.0574
     13 C         143.9110  141.7587  154.8712 C.ar    1  UNL1        0.0151
     14 C         144.8916  142.4874  154.0008 C.ar    1  UNL1        0.0036
     15 C         146.3626  142.3763  154.2724 C.ar    1  UNL1        0.0297
     16 C         146.8530  141.5364  155.4144 C.ar    1  UNL1        0.1414
     17 F         148.3240  141.4252  155.6860 F       1  UNL1       -0.2041
     18 C         145.8725  140.8076  156.2847 C.ar    1  UNL1        0.0446
     19 C         142.1593  137.3695  154.3928 C.3     1  UNL1        0.1177
     20 C         142.8261  133.2869  156.1642 C.ar    1  UNL1        0.0684
     21 C         143.8784  134.3465  156.3049 C.ar    1  UNL1        0.0100
     22 C         143.6561  135.7073  155.7144 C.ar    1  UNL1       -0.0019
     23 C         142.3816  136.0086  154.9833 C.ar    1  UNL1       -0.0025
     24 C         141.3292  134.9490  154.8426 C.ar    1  UNL1       -0.0019
     25 C         141.5515  133.5882  155.4330 C.ar    1  UNL1        0.0100
     26 N         143.2706  130.5651  157.3451 N.1     1  UNL1       -0.1908
     27 C         143.0483  131.9260  156.7546 C.1     1  UNL1        0.1004
     28 C         142.4884  142.0073  162.5250 C.3     1  UNL1        0.0724
     29 C         141.1365  142.5095  162.9374 C.3     1  UNL1        0.0215
     30 C         140.1831  141.5974  163.6509 C.3     1  UNL1        0.0236
     31 C         141.1101  141.9397  164.7794 C.3     1  UNL1        0.0257
     32 C         140.8768  141.3610  166.1435 C.3     1  UNL1        0.0940
     33 N         139.7165  140.4400  166.3791 N.am    1  UNL1       -0.2759
     34 C         139.4832  139.8613  167.7432 C.2     1  UNL1        0.2534
     35 O         138.3229  138.9403  167.9786 O.2     1  UNL1       -0.2697
     36 C         138.7895  140.0977  165.2506 C.3     1  UNL1        0.0940
     37 C         139.0229  140.6764  163.8865 C.3     1  UNL1        0.0257
     38 C         140.4102  140.2036  168.8717 C.ar    1  UNL1        0.1083
     39 C         139.8991  140.9686  170.0563 C.ar    1  UNL1        0.1467
     40 F         138.4609  141.3913  170.1126 F       1  UNL1       -0.2039
     41 C         140.8260  141.3109  171.1848 C.ar    1  UNL1        0.0299
     42 C         142.2642  140.8882  171.1286 C.ar    1  UNL1        0.0046
     43 C         142.7753  140.1232  169.9439 C.ar    1  UNL1        0.0299
     44 C         141.8483  139.7809  168.8154 C.ar    1  UNL1        0.1467
     45 F         142.3593  139.0159  167.6307 F       1  UNL1       -0.2039
     46 C         139.5873  141.5719  162.2746 C.ar    1  UNL1       -0.0204
     47 C         139.0513  142.8337  161.6659 C.ar    1  UNL1       -0.0041
     48 C         138.4554  142.8083  160.2896 C.ar    1  UNL1        0.0020
     49 C         138.3956  141.5210  159.5220 C.ar    1  UNL1        0.0296
     50 C         138.9316  140.2591  160.1307 C.ar    1  UNL1        0.1398
     51 F         138.8717  138.9719  159.3630 F       1  UNL1       -0.2042
     52 C         139.5274  140.2846  161.5070 C.ar    1  UNL1        0.0254
@<TRIPOS>BOND
     1    26    27    3
     2    27    20    1
     3    20    21   ar
     4    21    22   ar
     5    22    23   ar
     6    23    19    1
     7    19     7    1
     8     7     8   am
     9     8     9    2
    10     8    10   am
    11    10    12    1
    12    12    13   ar
    13    13    14   ar
    14    14    15   ar
    15    15    16   ar
    16    16    17    1
    17    16    18   ar
    18    10     1    1
    19     1     2    1
    20     2     3    1
    21     3     4    1
    22     4    28    1
    23    28    29    1
    24    29    30    1
    25    30    46    1
    26    46    47   ar
    27    47    48   ar
    28    48    49   ar
    29    49    50   ar
    30    50    51    1
    31    50    52   ar
    32    30    31    1
    33    31    32    1
    34    32    33    1
    35    33    34   am
    36    34    35    2
    37    34    38    1
    38    38    39   ar
    39    39    40    1
    40    39    41   ar
    41    41    42   ar
    42    42    43   ar
    43    43    44   ar
    44    44    45    1
    45    33    36    1
    46    36    37    1
    47     4     5    1
    48     5     6    1
    49    23    24   ar
    50    24    25   ar
    51    25    20   ar
    52    18    12   ar
    53     6     1    1
    54    37    30    1
    55    52    46   ar
    56    44    38   ar
    57     7    11    1
@<TRIPOS>MOLECULE
*****
 52 57 0 0 0
SMALL
GASTEIGER

@<TRIPOS>ATOM
      1 C         138.8087  140.6460  158.2104 C.3     1  UNL1        0.0840
      2 C         138.5275  141.4138  159.4679 C.3     1  UNL1        0.0376
      3 C         138.6886  140.7504  160.8035 C.3     1  UNL1        0.0738
      4 N         139.1308  139.3193  160.8817 N.3     1  UNL1       -0.2726
      5 C         139.4120  138.5514  159.6241 C.3     1  UNL1        0.0738
      6 C         139.2510  139.2148  158.2884 C.3     1  UNL1        0.0376
      7 N         139.4570  143.0314  155.1055 N.am    1  UNL1       -0.2844
      8 C         139.6180  142.3680  156.4412 C.2     1  UNL1        0.3079
      9 O         140.7494  142.7631  157.3433 O.2     1  UNL1       -0.2522
     10 N         138.6476  141.3094  156.8747 N.am    1  UNL1       -0.2448
     11 H         138.7144  142.7721  154.5134 H       1  UNL1        0.1513
     12 C         137.5163  140.9143  155.9726 C.ar    1  UNL1        0.0574
     13 C         137.7430  139.9114  154.8805 C.ar    1  UNL1        0.0151
     14 C         136.6115  139.5163  153.9784 C.ar    1  UNL1        0.0036
     15 C         135.2535  140.1241  154.1684 C.ar    1  UNL1        0.0297
     16 C         135.0268  141.1271  155.2605 C.ar    1  UNL1        0.1414
     17 F         133.6687  141.7349  155.4504 F       1  UNL1       -0.2041
     18 C         136.1581  141.5222  156.1626 C.ar    1  UNL1        0.0446
     19 C         140.4273  144.0899  154.6720 C.3     1  UNL1        0.1177
     20 C         139.3318  148.4380  155.0517 C.ar    1  UNL1        0.0684
     21 C         140.1116  147.9621  153.8620 C.ar    1  UNL1        0.0100
     22 C         140.4767  146.5128  153.7354 C.ar    1  UNL1       -0.0019
     23 C         140.0621  145.5393  154.7986 C.ar    1  UNL1       -0.0025
     24 C         139.2824  146.0151  155.9883 C.ar    1  UNL1       -0.0019
     25 C         138.9172  147.4645  156.1148 C.ar    1  UNL1        0.0100
     26 N         138.6016  151.3367  155.3048 N.1     1  UNL1       -0.1908
     27 C         138.9667  149.8874  155.1782 C.1     1  UNL1        0.1004
     28 C         139.2919  138.6559  162.2173 C.3     1  UNL1        0.0724
     29 C         140.6539  138.2414  162.6895 C.3     1  UNL1        0.0215
     30 C         141.5929  139.2627  163.2599 C.3     1  UNL1        0.0236
     31 C         140.7449  138.9863  164.4659 C.3     1  UNL1        0.0257
     32 C         141.0172  139.7040  165.7546 C.3     1  UNL1        0.0940
     33 N         142.1374  140.6981  165.8373 N.am    1  UNL1       -0.2759
     34 C         142.4096  141.4157  167.1261 C.2     1  UNL1        0.2534
     35 O         143.5299  142.4098  167.2087 O.2     1  UNL1       -0.2697
     36 C         142.9854  140.9745  164.6313 C.3     1  UNL1        0.0940
     37 C         142.7131  140.2568  163.3426 C.3     1  UNL1        0.0257
     38 C         141.5616  141.1393  168.3321 C.ar    1  UNL1        0.1083
     39 C         140.5047  142.1196  168.7465 C.ar    1  UNL1        0.1467
     40 F         140.2957  143.3765  167.9548 F       1  UNL1       -0.2039
     41 C         139.6567  141.8431  169.9525 C.ar    1  UNL1        0.0299
     42 C         139.8657  140.5863  170.7441 C.ar    1  UNL1        0.0046
     43 C         140.9227  139.6060  170.3298 C.ar    1  UNL1        0.0299
     44 C         141.7707  139.8824  169.1238 C.ar    1  UNL1        0.1467
     45 F         142.8277  138.9021  168.7093 F       1  UNL1       -0.2039
     46 C         142.1148  139.1845  161.8557 C.ar    1  UNL1       -0.0204
     47 C         142.3114  140.4393  161.0577 C.ar    1  UNL1       -0.0041
     48 C         142.8333  140.3610  159.6536 C.ar    1  UNL1        0.0020
     49 C         143.1584  139.0280  159.0475 C.ar    1  UNL1        0.0296
     50 C         142.9617  137.7732  159.8456 C.ar    1  UNL1        0.1398
     51 F         143.2869  136.4402  159.2394 F       1  UNL1       -0.2042
     52 C         142.4399  137.8515  161.2497 C.ar    1  UNL1        0.0254
@<TRIPOS>BOND
     1    26    27    3
     2    27    20    1
     3    20    21   ar
     4    21    22   ar
     5    22    23   ar
     6    23    19    1
     7    19     7    1
     8     7     8   am
     9     8     9    2
    10     8    10   am
    11    10    12    1
    12    12    13   ar
    13    13    14   ar
    14    14    15   ar
    15    15    16   ar
    16    16    17    1
    17    16    18   ar
    18    10     1    1
    19     1     2    1
    20     2     3    1
    21     3     4    1
    22     4    28    1
    23    28    29    1
    24    29    30    1
    25    30    46    1
    26    46    47   ar
    27    47    48   ar
    28    48    49   ar
    29    49    50   ar
    30    50    51    1
    31    50    52   ar
    32    30    31    1
    33    31    32    1
    34    32    33    1
    35    33    34   am
    36    34    35    2
    37    34    38    1
    38    38    39   ar
    39    39    40    1
    40    39    41   ar
    41    41    42   ar
    42    42    43   ar
    43    43    44   ar
    44    44    45    1
    45    33    36    1
    46    36    37    1
    47     4     5    1
    48     5     6    1
    49    23    24   ar
    50    24    25   ar
    51    25    20   ar
    52    18    12   ar
    53     6     1    1
    54    37    30    1
    55    52    46   ar
    56    44    38   ar
    57     7    11    1
@<TRIPOS>MOLECULE
*****
 52 57 0 0 0
SMALL
GASTEIGER

@<TRIPOS>ATOM
      1 C         140.3073  139.1976  158.4599 C.3     1  UNL1        0.0840
      2 C         140.4097  138.4338  159.7468 C.3     1  UNL1        0.0376
      3 C         139.9795  139.0722  161.0342 C.3     1  UNL1        0.0738
      4 N         139.4469  140.4744  161.0347 N.3     1  UNL1       -0.2726
      5 C         139.3445  141.2383  159.7478 C.3     1  UNL1        0.0738
      6 C         139.7747  140.5999  158.4604 C.3     1  UNL1        0.0376
      7 N         142.3815  137.0399  155.8538 N.am    1  UNL1       -0.2844
      8 C         141.9513  137.6783  157.1411 C.2     1  UNL1        0.3079
      9 O         142.7349  137.4360  158.3970 O.2     1  UNL1       -0.2522
     10 N         140.7375  138.5591  157.1726 N.am    1  UNL1       -0.2448
     11 H         141.8672  137.1989  155.0295 H       1  UNL1        0.1513
     12 C         139.9539  138.8014  155.9167 C.ar    1  UNL1        0.0574
     13 C         140.3328  139.9282  155.0019 C.ar    1  UNL1        0.0151
     14 C         139.5492  140.1705  153.7460 C.ar    1  UNL1        0.0036
     15 C         138.3868  139.2860  153.4049 C.ar    1  UNL1        0.0297
     16 C         138.0079  138.1592  154.3197 C.ar    1  UNL1        0.1414
     17 F         136.8454  137.2748  153.9786 F       1  UNL1       -0.2041
     18 C         138.7914  137.9169  155.5755 C.ar    1  UNL1        0.0446
     19 C         143.5953  136.1591  155.8223 C.3     1  UNL1        0.1177
     20 C         143.1399  131.6901  156.0876 C.ar    1  UNL1        0.0684
     21 C         142.8002  132.4043  154.8130 C.ar    1  UNL1        0.0100
     22 C         142.9520  133.8939  154.7246 C.ar    1  UNL1       -0.0019
     23 C         143.4435  134.6695  155.9107 C.ar    1  UNL1       -0.0025
     24 C         143.7832  133.9553  157.1852 C.ar    1  UNL1       -0.0019
     25 C         143.6314  132.4656  157.2737 C.ar    1  UNL1        0.0100
     26 N         142.8363  128.7108  156.2644 N.1     1  UNL1       -0.1908
     27 C         142.9881  130.2004  156.1760 C.1     1  UNL1        0.1004
     28 C         139.0167  141.1129  162.3221 C.3     1  UNL1        0.0724
     29 C         139.3984  142.5327  162.6194 C.3     1  UNL1        0.0215
     30 C         140.6620  142.8278  163.3717 C.3     1  UNL1        0.0236
     31 C         139.8638  142.1631  164.4538 C.3     1  UNL1        0.0257
     32 C         140.4540  141.9888  165.8218 C.3     1  UNL1        0.0940
     33 N         141.8424  142.4791  166.1076 N.am    1  UNL1       -0.2759
     34 C         142.4327  142.3048  167.4756 C.2     1  UNL1        0.2534
     35 O         143.8211  142.7952  167.7614 O.2     1  UNL1       -0.2697
     36 C         142.6407  143.1438  165.0255 C.3     1  UNL1        0.0940
     37 C         142.0505  143.3181  163.6576 C.3     1  UNL1        0.0257
     38 C         141.6344  141.6401  168.5577 C.ar    1  UNL1        0.1083
     39 C         141.9368  140.2245  168.9508 C.ar    1  UNL1        0.1467
     40 F         143.0374  139.4736  168.2619 F       1  UNL1       -0.2039
     41 C         141.1385  139.5598  170.0329 C.ar    1  UNL1        0.0299
     42 C         140.0378  140.3108  170.7219 C.ar    1  UNL1        0.0046
     43 C         139.7355  141.7264  170.3288 C.ar    1  UNL1        0.0299
     44 C         140.5337  142.3911  169.2467 C.ar    1  UNL1        0.1467
     45 F         140.2314  143.8067  168.8535 F       1  UNL1       -0.2039
     46 C         141.0214  143.3900  162.0283 C.ar    1  UNL1       -0.0204
     47 C         142.1976  142.8415  161.2760 C.ar    1  UNL1       -0.0041
     48 C         142.5569  143.4037  159.9326 C.ar    1  UNL1        0.0020
     49 C         141.7402  144.5143  159.3415 C.ar    1  UNL1        0.0296
     50 C         140.5640  145.0628  160.0938 C.ar    1  UNL1        0.1398
     51 F         139.7474  146.1734  159.5026 F       1  UNL1       -0.2042
     52 C         140.2047  144.5006  161.4372 C.ar    1  UNL1        0.0254
@<TRIPOS>BOND
     1    26    27    3
     2    27    20    1
     3    20    21   ar
     4    21    22   ar
     5    22    23   ar
     6    23    19    1
     7    19     7    1
     8     7     8   am
     9     8     9    2
    10     8    10   am
    11    10    12    1
    12    12    13   ar
    13    13    14   ar
    14    14    15   ar
    15    15    16   ar
    16    16    17    1
    17    16    18   ar
    18    10     1    1
    19     1     2    1
    20     2     3    1
    21     3     4    1
    22     4    28    1
    23    28    29    1
    24    29    30    1
    25    30    46    1
    26    46    47   ar
    27    47    48   ar
    28    48    49   ar
    29    49    50   ar
    30    50    51    1
    31    50    52   ar
    32    30    31    1
    33    31    32    1
    34    32    33    1
    35    33    34   am
    36    34    35    2
    37    34    38    1
    38    38    39   ar
    39    39    40    1
    40    39    41   ar
    41    41    42   ar
    42    42    43   ar
    43    43    44   ar
    44    44    45    1
    45    33    36    1
    46    36    37    1
    47     4     5    1
    48     5     6    1
    49    23    24   ar
    50    24    25   ar
    51    25    20   ar
    52    18    12   ar
    53     6     1    1
    54    37    30    1
    55    52    46   ar
    56    44    38   ar
    57     7    11    1
