@<TRIPOS>MOLECULE
*****
 28 30 0 0 0
SMALL
GASTEIGER

@<TRIPOS>ATOM
      1 C         141.3997  140.1621  168.5177 C.ar    1  UNL1        0.1428
      2 C         141.8600  139.8581  167.1228 C.ar    1  UNL1        0.0417
      3 C         140.8667  139.4385  166.0799 C.ar    1  UNL1        0.0562
      4 C         141.3269  139.1346  164.6850 C.ar    1  UNL1        0.2249
      5 N         140.3337  138.7150  163.6423 N.ar    1  UNL1       -0.2101
      6 C         138.8803  138.5994  163.9944 C.ar    1  UNL1        0.1021
      7 C         138.4200  138.9034  165.3893 C.ar    1  UNL1        0.0209
      8 C         139.4132  139.3230  166.4321 C.ar    1  UNL1        0.0064
      9 C         138.9530  139.6270  167.8270 C.ar    1  UNL1        0.0078
     10 C         139.9462  140.0465  168.8698 C.ar    1  UNL1        0.0870
     11 C         139.4859  140.3505  170.2647 C.2     1  UNL1        0.2457
     12 N         139.9134  139.4729  171.4035 N.am    1  UNL1       -0.3252
     13 O         138.5982  141.5322  170.5207 O.2     1  UNL1       -0.2703
     14 H         140.4961  138.6973  171.2354 H       1  UNL1        0.1453
     15 H         139.6113  139.6724  172.3190 H       1  UNL1        0.1453
     16 O         142.3930  140.5816  169.5605 O.3     1  UNL1       -0.4790
     17 C         144.2049  142.4225  169.8403 C.3     1  UNL1        0.0472
     18 C         142.7642  142.0280  169.7039 C.3     1  UNL1        0.1661
     19 C         141.6946  143.0796  169.7108 C.3     1  UNL1        0.0472
     20 O         142.7805  139.2501  164.3329 O.3     1  UNL1       -0.4584
     21 C         143.2180  140.1966  163.2546 C.3     1  UNL1        0.2264
     22 C         143.5706  141.6135  163.5980 C.3     1  UNL1        0.1158
     23 C         143.9742  142.1184  164.9515 C.3     1  UNL1        0.0329
     24 C         144.2346  143.5913  164.8382 C.3     1  UNL1        0.0869
     25 C         143.9918  143.9966  163.4145 C.2     1  UNL1        0.2226
     26 O         144.1344  145.3813  162.8555 O.2     1  UNL1       -0.2751
     27 N         143.5815  142.7743  162.6481 N.am    1  UNL1       -0.3024
     28 H         143.3584  142.7400  161.6898 H       1  UNL1        0.1495
@<TRIPOS>BOND
     1    17    18    1
     2    18    19    1
     3    18    16    1
     4    16     1    1
     5     1     2   ar
     6     2     3   ar
     7     3     4   ar
     8     4    20    1
     9    20    21    1
    10    22    21    1
    11    22    23    1
    12    23    24    1
    13    24    25    1
    14    25    26    2
    15    25    27   am
    16     4     5   ar
    17     5     6   ar
    18     6     7   ar
    19     7     8   ar
    20     8     9   ar
    21     9    10   ar
    22    10    11    1
    23    11    12   am
    24    11    13    2
    25    10     1   ar
    26     8     3   ar
    27    27    22    1
    28    27    28    1
    29    12    14    1
    30    12    15    1
@<TRIPOS>MOLECULE
*****
 28 30 0 0 0
SMALL
GASTEIGER

@<TRIPOS>ATOM
      1 C         141.4016  141.8594  167.4320 C.ar    1  UNL1        0.1428
      2 C         142.3959  142.4294  166.4643 C.ar    1  UNL1        0.0417
      3 C         143.2652  141.5130  165.6552 C.ar    1  UNL1        0.0562
      4 C         144.2595  142.0829  164.6875 C.ar    1  UNL1        0.2249
      5 N         145.1288  141.1666  163.8784 N.ar    1  UNL1       -0.2101
      6 C         145.0038  139.6803  164.0370 C.ar    1  UNL1        0.1021
      7 C         144.0094  139.1103  165.0047 C.ar    1  UNL1        0.0209
      8 C         143.1402  140.0267  165.8138 C.ar    1  UNL1        0.0064
      9 C         142.1459  139.4567  166.7815 C.ar    1  UNL1        0.0078
     10 C         141.2766  140.3730  167.5906 C.ar    1  UNL1        0.0870
     11 C         140.2823  139.8030  168.5583 C.2     1  UNL1        0.2457
     12 N         138.8795  139.5166  168.1108 N.am    1  UNL1       -0.3252
     13 O         140.6907  139.5195  169.9735 O.2     1  UNL1       -0.2703
     14 H         138.6114  139.7027  167.1820 H       1  UNL1        0.1453
     15 H         138.2269  139.1425  168.7460 H       1  UNL1        0.1453
     16 O         140.5323  142.7757  168.2411 O.3     1  UNL1       -0.4790
     17 C         139.7210  143.0898  170.6892 C.3     1  UNL1        0.0472
     18 C         140.8374  143.0133  169.6904 C.3     1  UNL1        0.1661
     19 C         142.2591  143.1742  170.1409 C.3     1  UNL1        0.0472
     20 O         144.3845  143.5693  164.5289 O.3     1  UNL1       -0.4584
     21 C         144.0915  144.2095  163.2043 C.3     1  UNL1        0.2264
     22 C         142.6941  144.6426  162.8735 C.3     1  UNL1        0.1158
     23 C         141.5845  144.8679  163.8574 C.3     1  UNL1        0.0329
     24 C         140.3655  145.2910  163.0926 C.3     1  UNL1        0.0869
     25 C         140.7217  145.3273  161.6359 C.2     1  UNL1        0.2226
     26 O         139.8004  145.6990  160.5120 O.2     1  UNL1       -0.2751
     27 N         142.1608  144.9265  161.5005 N.am    1  UNL1       -0.3024
     28 H         142.6665  144.8613  160.6584 H       1  UNL1        0.1495
@<TRIPOS>BOND
     1    17    18    1
     2    18    19    1
     3    18    16    1
     4    16     1    1
     5     1     2   ar
     6     2     3   ar
     7     3     4   ar
     8     4    20    1
     9    20    21    1
    10    22    21    1
    11    22    23    1
    12    23    24    1
    13    24    25    1
    14    25    26    2
    15    25    27   am
    16     4     5   ar
    17     5     6   ar
    18     6     7   ar
    19     7     8   ar
    20     8     9   ar
    21     9    10   ar
    22    10    11    1
    23    11    12   am
    24    11    13    2
    25    10     1   ar
    26     8     3   ar
    27    27    22    1
    28    27    28    1
    29    12    14    1
    30    12    15    1
@<TRIPOS>MOLECULE
*****
 28 30 0 0 0
SMALL
GASTEIGER

@<TRIPOS>ATOM
      1 C         139.2816  141.4665  164.7687 C.ar    1  UNL1        0.1428
      2 C         140.5559  141.5065  165.5591 C.ar    1  UNL1        0.0417
      3 C         141.6864  142.3869  165.1152 C.ar    1  UNL1        0.0562
      4 C         142.9606  142.4270  165.9056 C.ar    1  UNL1        0.2249
      5 N         144.0911  143.3073  165.4617 N.ar    1  UNL1       -0.2101
      6 C         143.9473  144.1476  164.2276 C.ar    1  UNL1        0.1021
      7 C         142.6730  144.1075  163.4372 C.ar    1  UNL1        0.0209
      8 C         141.5426  143.2272  163.8810 C.ar    1  UNL1        0.0064
      9 C         140.2683  143.1872  163.0907 C.ar    1  UNL1        0.0078
     10 C         139.1379  142.3068  163.5345 C.ar    1  UNL1        0.0870
     11 C         137.8636  142.2668  162.7441 C.2     1  UNL1        0.2457
     12 N         136.7668  141.3220  163.1369 N.am    1  UNL1       -0.3252
     13 O         137.6862  143.1716  161.5609 O.2     1  UNL1       -0.2703
     14 H         136.8832  140.7281  163.9135 H       1  UNL1        0.1453
     15 H         135.9305  141.2957  162.6182 H       1  UNL1        0.1453
     16 O         138.1511  140.5862  165.2125 O.3     1  UNL1       -0.4790
     17 C         138.0496  138.8321  167.1264 C.3     1  UNL1        0.0472
     18 C         138.4328  139.2048  165.7250 C.3     1  UNL1        0.1661
     19 C         139.0978  138.1962  164.8358 C.3     1  UNL1        0.0472
     20 O         143.1044  141.5866  167.1398 O.3     1  UNL1       -0.4584
     21 C         142.9908  142.2191  168.4952 C.3     1  UNL1        0.2264
     22 C         141.6785  142.2056  169.2215 C.3     1  UNL1        0.1158
     23 C         140.6833  141.0833  169.2234 C.3     1  UNL1        0.0329
     24 C         139.5207  141.4961  170.0766 C.3     1  UNL1        0.0869
     25 C         139.7973  142.8736  170.6019 C.2     1  UNL1        0.2226
     26 O         138.8982  143.6724  171.4983 O.2     1  UNL1       -0.2751
     27 N         141.1309  143.3121  170.0734 N.am    1  UNL1       -0.3024
     28 H         141.5697  144.1747  170.2540 H       1  UNL1        0.1495
@<TRIPOS>BOND
     1    17    18    1
     2    18    19    1
     3    18    16    1
     4    16     1    1
     5     1     2   ar
     6     2     3   ar
     7     3     4   ar
     8     4    20    1
     9    20    21    1
    10    22    21    1
    11    22    23    1
    12    23    24    1
    13    24    25    1
    14    25    26    2
    15    25    27   am
    16     4     5   ar
    17     5     6   ar
    18     6     7   ar
    19     7     8   ar
    20     8     9   ar
    21     9    10   ar
    22    10    11    1
    23    11    12   am
    24    11    13    2
    25    10     1   ar
    26     8     3   ar
    27    27    22    1
    28    27    28    1
    29    12    14    1
    30    12    15    1
@<TRIPOS>MOLECULE
*****
 28 30 0 0 0
SMALL
GASTEIGER

@<TRIPOS>ATOM
      1 C         140.8537  141.1772  168.1043 C.ar    1  UNL1        0.1428
      2 C         141.3294  140.9807  166.6953 C.ar    1  UNL1        0.0417
      3 C         140.5778  140.0702  165.7700 C.ar    1  UNL1        0.0562
      4 C         141.0535  139.8738  164.3611 C.ar    1  UNL1        0.2249
      5 N         140.3020  138.9633  163.4358 N.ar    1  UNL1       -0.2101
      6 C         139.0747  138.2493  163.9195 C.ar    1  UNL1        0.1021
      7 C         138.5990  138.4457  165.3284 C.ar    1  UNL1        0.0209
      8 C         139.3506  139.3562  166.2537 C.ar    1  UNL1        0.0064
      9 C         138.8749  139.5526  167.6627 C.ar    1  UNL1        0.0078
     10 C         139.6264  140.4631  168.5879 C.ar    1  UNL1        0.0870
     11 C         139.1508  140.6595  169.9969 C.2     1  UNL1        0.2457
     12 N         139.2415  142.0128  170.6373 N.am    1  UNL1       -0.3252
     13 O         138.5843  139.5025  170.7654 O.2     1  UNL1       -0.2703
     14 H         139.6133  142.7722  170.1329 H       1  UNL1        0.1453
     15 H         138.9293  142.1417  171.5621 H       1  UNL1        0.1453
     16 O         141.6053  142.0876  169.0295 O.3     1  UNL1       -0.4790
     17 C         144.0588  142.4492  169.8041 C.3     1  UNL1        0.0472
     18 C         142.8301  141.5912  169.7391 C.3     1  UNL1        0.1661
     19 C         142.8263  140.2367  170.3836 C.3     1  UNL1        0.0472
     20 O         142.2808  140.5879  163.8774 O.3     1  UNL1       -0.4584
     21 C         142.1487  141.7824  162.9798 C.3     1  UNL1        0.2264
     22 C         141.0978  142.8162  163.2569 C.3     1  UNL1        0.1158
     23 C         141.1387  143.8446  164.3481 C.3     1  UNL1        0.0329
     24 C         139.8877  144.6671  164.2570 C.3     1  UNL1        0.0869
     25 C         139.0736  144.1471  163.1095 C.2     1  UNL1        0.2226
     26 O         137.7448  144.6778  162.6591 O.2     1  UNL1       -0.2751
     27 N         139.8215  143.0031  162.4914 N.am    1  UNL1       -0.3024
     28 H         139.5265  142.4689  161.7189 H       1  UNL1        0.1495
@<TRIPOS>BOND
     1    17    18    1
     2    18    19    1
     3    18    16    1
     4    16     1    1
     5     1     2   ar
     6     2     3   ar
     7     3     4   ar
     8     4    20    1
     9    20    21    1
    10    22    21    1
    11    22    23    1
    12    23    24    1
    13    24    25    1
    14    25    26    2
    15    25    27   am
    16     4     5   ar
    17     5     6   ar
    18     6     7   ar
    19     7     8   ar
    20     8     9   ar
    21     9    10   ar
    22    10    11    1
    23    11    12   am
    24    11    13    2
    25    10     1   ar
    26     8     3   ar
    27    27    22    1
    28    27    28    1
    29    12    14    1
    30    12    15    1
@<TRIPOS>MOLECULE
*****
 28 30 0 0 0
SMALL
GASTEIGER

@<TRIPOS>ATOM
      1 C         141.5405  143.5736  164.4622 C.ar    1  UNL1        0.1428
      2 C         141.1781  142.4860  165.4295 C.ar    1  UNL1        0.0417
      3 C         142.0117  141.2412  165.5052 C.ar    1  UNL1        0.0562
      4 C         141.6493  140.1535  166.4726 C.ar    1  UNL1        0.2249
      5 N         142.4828  138.9088  166.5483 N.ar    1  UNL1       -0.2101
      6 C         143.6788  138.7517  165.6567 C.ar    1  UNL1        0.1021
      7 C         144.0412  139.8393  164.6894 C.ar    1  UNL1        0.0209
      8 C         143.2077  141.0841  164.6137 C.ar    1  UNL1        0.0064
      9 C         143.5701  142.1717  163.6463 C.ar    1  UNL1        0.0078
     10 C         142.7365  143.4164  163.5706 C.ar    1  UNL1        0.0870
     11 C         143.0990  144.5041  162.6033 C.2     1  UNL1        0.2457
     12 N         142.0624  145.0515  161.6674 N.am    1  UNL1       -0.3252
     13 O         144.4980  145.0443  162.5718 O.2     1  UNL1       -0.2703
     14 H         141.1442  144.6969  161.6881 H       1  UNL1        0.1453
     15 H         142.3003  145.7653  161.0325 H       1  UNL1        0.1453
     16 O         140.7070  144.8183  164.3865 O.3     1  UNL1       -0.4790
     17 C         138.4239  144.9326  165.6212 C.3     1  UNL1        0.0472
     18 C         139.2104  144.7185  164.3621 C.3     1  UNL1        0.1661
     19 C         138.5005  144.4047  163.0786 C.3     1  UNL1        0.0472
     20 O         140.4532  140.3107  167.3642 O.3     1  UNL1       -0.4584
     21 C         139.1319  139.7300  166.9558 C.3     1  UNL1        0.2264
     22 C         138.7052  139.7743  165.5184 C.3     1  UNL1        0.1158
     23 C         138.9508  138.7079  164.4925 C.3     1  UNL1        0.0329
     24 C         138.3555  139.1673  163.1947 C.3     1  UNL1        0.0869
     25 C         137.7419  140.5177  163.4185 C.2     1  UNL1        0.2226
     26 O         137.0361  141.3474  162.3871 O.2     1  UNL1       -0.2751
     27 N         137.9581  140.8929  164.8546 N.am    1  UNL1       -0.3024
     28 H         137.6617  141.7268  165.2858 H       1  UNL1        0.1495
@<TRIPOS>BOND
     1    17    18    1
     2    18    19    1
     3    18    16    1
     4    16     1    1
     5     1     2   ar
     6     2     3   ar
     7     3     4   ar
     8     4    20    1
     9    20    21    1
    10    22    21    1
    11    22    23    1
    12    23    24    1
    13    24    25    1
    14    25    26    2
    15    25    27   am
    16     4     5   ar
    17     5     6   ar
    18     6     7   ar
    19     7     8   ar
    20     8     9   ar
    21     9    10   ar
    22    10    11    1
    23    11    12   am
    24    11    13    2
    25    10     1   ar
    26     8     3   ar
    27    27    22    1
    28    27    28    1
    29    12    14    1
    30    12    15    1
@<TRIPOS>MOLECULE
*****
 28 30 0 0 0
SMALL
GASTEIGER

@<TRIPOS>ATOM
      1 C         140.5405  140.1664  168.1478 C.ar    1  UNL1        0.1428
      2 C         139.7641  139.9528  166.8823 C.ar    1  UNL1        0.0417
      3 C         140.4266  139.3220  165.6934 C.ar    1  UNL1        0.0562
      4 C         139.6502  139.1084  164.4279 C.ar    1  UNL1        0.2249
      5 N         140.3126  138.4776  163.2390 N.ar    1  UNL1       -0.2101
      6 C         141.7514  138.0605  163.3158 C.ar    1  UNL1        0.1021
      7 C         142.5277  138.2740  164.5813 C.ar    1  UNL1        0.0209
      8 C         141.8653  138.9048  165.7702 C.ar    1  UNL1        0.0064
      9 C         142.6417  139.1184  167.0357 C.ar    1  UNL1        0.0078
     10 C         141.9793  139.7491  168.2245 C.ar    1  UNL1        0.0870
     11 C         142.7557  139.9627  169.4901 C.2     1  UNL1        0.2457
     12 N         142.9331  138.8331  170.4608 N.am    1  UNL1       -0.3252
     13 O         143.3546  141.3061  169.7849 O.2     1  UNL1       -0.2703
     14 H         142.5401  137.9514  170.2673 H       1  UNL1        0.1453
     15 H         143.4427  138.9733  171.2914 H       1  UNL1        0.1453
     16 O         139.8781  140.7971  169.3367 O.3     1  UNL1       -0.4790
     17 C         140.4745  143.1668  168.4539 C.3     1  UNL1        0.0472
     18 C         139.9863  142.2768  169.5582 C.3     1  UNL1        0.1661
     19 C         139.6062  142.8664  170.8841 C.3     1  UNL1        0.0472
     20 O         138.2114  139.5256  164.3512 O.3     1  UNL1       -0.4584
     21 C         137.7555  140.4494  163.2609 C.3     1  UNL1        0.2264
     22 C         137.9455  141.9304  163.4044 C.3     1  UNL1        0.1158
     23 C         138.0210  142.6885  164.6965 C.3     1  UNL1        0.0329
     24 C         138.2156  144.1399  164.3717 C.3     1  UNL1        0.0869
     25 C         138.2603  144.2788  162.8788 C.2     1  UNL1        0.2226
     26 O         138.4404  145.5586  162.1174 O.2     1  UNL1       -0.2751
     27 N         138.0934  142.9132  162.2810 N.am    1  UNL1       -0.3024
     28 H         138.0828  142.6996  161.3200 H       1  UNL1        0.1495
@<TRIPOS>BOND
     1    17    18    1
     2    18    19    1
     3    18    16    1
     4    16     1    1
     5     1     2   ar
     6     2     3   ar
     7     3     4   ar
     8     4    20    1
     9    20    21    1
    10    22    21    1
    11    22    23    1
    12    23    24    1
    13    24    25    1
    14    25    26    2
    15    25    27   am
    16     4     5   ar
    17     5     6   ar
    18     6     7   ar
    19     7     8   ar
    20     8     9   ar
    21     9    10   ar
    22    10    11    1
    23    11    12   am
    24    11    13    2
    25    10     1   ar
    26     8     3   ar
    27    27    22    1
    28    27    28    1
    29    12    14    1
    30    12    15    1
@<TRIPOS>MOLECULE
*****
 28 30 0 0 0
SMALL
GASTEIGER

@<TRIPOS>ATOM
      1 C         140.1954  141.6681  167.6067 C.ar    1  UNL1        0.1428
      2 C         140.2492  141.7715  166.1113 C.ar    1  UNL1        0.0417
      3 C         139.7316  140.6480  165.2627 C.ar    1  UNL1        0.0562
      4 C         139.7854  140.7515  163.7672 C.ar    1  UNL1        0.2249
      5 N         139.2679  139.6281  162.9186 N.ar    1  UNL1       -0.2101
      6 C         138.6966  138.4013  163.5655 C.ar    1  UNL1        0.1021
      7 C         138.6429  138.2978  165.0610 C.ar    1  UNL1        0.0209
      8 C         139.1604  139.4212  165.9096 C.ar    1  UNL1        0.0064
      9 C         139.1067  139.3177  167.4050 C.ar    1  UNL1        0.0078
     10 C         139.6242  140.4411  168.2536 C.ar    1  UNL1        0.0870
     11 C         139.5704  140.3377  169.7491 C.2     1  UNL1        0.2457
     12 N         140.6100  139.5444  170.4838 N.am    1  UNL1       -0.3252
     13 O         138.4770  141.0276  170.5098 O.2     1  UNL1       -0.2703
     14 H         141.3277  139.0916  169.9845 H       1  UNL1        0.1453
     15 H         140.5748  139.4765  171.4653 H       1  UNL1        0.1453
     16 O         140.7129  142.7915  168.4553 O.3     1  UNL1       -0.4790
     17 C         143.2363  142.2155  168.2288 C.3     1  UNL1        0.0472
     18 C         142.0853  142.7076  169.0552 C.3     1  UNL1        0.1661
     19 C         142.3065  143.1158  170.4815 C.3     1  UNL1        0.0472
     20 O         140.3566  141.9784  163.1203 O.3     1  UNL1       -0.4584
     21 C         141.8204  142.0445  162.7993 C.3     1  UNL1        0.2264
     22 C         142.6962  143.0444  163.4943 C.3     1  UNL1        0.1158
     23 C         142.7976  144.5050  163.1681 C.3     1  UNL1        0.0329
     24 C         143.7885  145.1226  164.1097 C.3     1  UNL1        0.0869
     25 C         144.2996  144.0436  165.0179 C.2     1  UNL1        0.2226
     26 O         145.3086  144.2183  166.1140 O.2     1  UNL1       -0.2751
     27 N         143.6245  142.7593  164.6375 N.am    1  UNL1       -0.3024
     28 H         143.7659  141.8830  165.0634 H       1  UNL1        0.1495
@<TRIPOS>BOND
     1    17    18    1
     2    18    19    1
     3    18    16    1
     4    16     1    1
     5     1     2   ar
     6     2     3   ar
     7     3     4   ar
     8     4    20    1
     9    20    21    1
    10    22    21    1
    11    22    23    1
    12    23    24    1
    13    24    25    1
    14    25    26    2
    15    25    27   am
    16     4     5   ar
    17     5     6   ar
    18     6     7   ar
    19     7     8   ar
    20     8     9   ar
    21     9    10   ar
    22    10    11    1
    23    11    12   am
    24    11    13    2
    25    10     1   ar
    26     8     3   ar
    27    27    22    1
    28    27    28    1
    29    12    14    1
    30    12    15    1
@<TRIPOS>MOLECULE
*****
 28 30 0 0 0
SMALL
GASTEIGER

@<TRIPOS>ATOM
      1 C         141.1188  143.3267  163.8471 C.ar    1  UNL1        0.1428
      2 C         140.6546  142.1927  164.7123 C.ar    1  UNL1        0.0417
      3 C         141.5945  141.0732  165.0496 C.ar    1  UNL1        0.0562
      4 C         141.1303  139.9392  165.9148 C.ar    1  UNL1        0.2249
      5 N         142.0700  138.8198  166.2521 N.ar    1  UNL1       -0.2101
      6 C         143.4739  138.8344  165.7242 C.ar    1  UNL1        0.1021
      7 C         143.9381  139.9684  164.8590 C.ar    1  UNL1        0.0209
      8 C         142.9984  141.0878  164.5217 C.ar    1  UNL1        0.0064
      9 C         143.4626  142.2218  163.6565 C.ar    1  UNL1        0.0078
     10 C         142.5228  143.3412  163.3192 C.ar    1  UNL1        0.0870
     11 C         142.9870  144.4752  162.4540 C.2     1  UNL1        0.2457
     12 N         142.1128  144.9779  161.3436 N.am    1  UNL1       -0.3252
     13 O         144.3255  145.1064  162.6992 O.2     1  UNL1       -0.2703
     14 H         141.2344  144.5636  161.1827 H       1  UNL1        0.1453
     15 H         142.4175  145.7222  160.7758 H       1  UNL1        0.1453
     16 O         140.1791  144.4461  163.5098 O.3     1  UNL1       -0.4790
     17 C         137.6183  144.0511  163.3185 C.3     1  UNL1        0.0472
     18 C         138.8094  144.4852  164.1202 C.3     1  UNL1        0.1661
     19 C         138.6309  144.9584  165.5324 C.3     1  UNL1        0.0472
     20 O         139.7262  139.9247  166.4427 O.3     1  UNL1       -0.4584
     21 C         139.4814  139.9280  167.9226 C.3     1  UNL1        0.2264
     22 C         140.1111  140.9817  168.7846 C.3     1  UNL1        0.1158
     23 C         140.3575  142.4090  168.3943 C.3     1  UNL1        0.0329
     24 C         141.0037  143.1025  169.5567 C.3     1  UNL1        0.0869
     25 C         141.1567  142.1039  170.6655 C.2     1  UNL1        0.2226
     26 O         141.7562  142.3694  172.0147 O.2     1  UNL1       -0.2751
     27 N         140.6051  140.7932  170.1883 N.am    1  UNL1       -0.3024
     28 H         140.5729  139.9562  170.7056 H       1  UNL1        0.1495
@<TRIPOS>BOND
     1    17    18    1
     2    18    19    1
     3    18    16    1
     4    16     1    1
     5     1     2   ar
     6     2     3   ar
     7     3     4   ar
     8     4    20    1
     9    20    21    1
    10    22    21    1
    11    22    23    1
    12    23    24    1
    13    24    25    1
    14    25    26    2
    15    25    27   am
    16     4     5   ar
    17     5     6   ar
    18     6     7   ar
    19     7     8   ar
    20     8     9   ar
    21     9    10   ar
    22    10    11    1
    23    11    12   am
    24    11    13    2
    25    10     1   ar
    26     8     3   ar
    27    27    22    1
    28    27    28    1
    29    12    14    1
    30    12    15    1
@<TRIPOS>MOLECULE
*****
 28 30 0 0 0
SMALL
GASTEIGER

@<TRIPOS>ATOM
      1 C         140.6647  140.8296  166.5063 C.ar    1  UNL1        0.1428
      2 C         140.0204  142.0450  165.9083 C.ar    1  UNL1        0.0417
      3 C         140.8539  143.0475  165.1663 C.ar    1  UNL1        0.0562
      4 C         140.2096  144.2629  164.5683 C.ar    1  UNL1        0.2249
      5 N         141.0430  145.2653  163.8264 N.ar    1  UNL1       -0.2101
      6 C         142.5208  145.0523  163.6824 C.ar    1  UNL1        0.1021
      7 C         143.1651  143.8369  164.2804 C.ar    1  UNL1        0.0209
      8 C         142.3317  142.8345  165.0224 C.ar    1  UNL1        0.0064
      9 C         142.9760  141.6191  165.6204 C.ar    1  UNL1        0.0078
     10 C         142.1426  140.6167  166.3623 C.ar    1  UNL1        0.0870
     11 C         142.7870  139.4013  166.9603 C.2     1  UNL1        0.2457
     12 N         142.8301  139.2315  168.4500 N.am    1  UNL1       -0.3252
     13 O         143.3881  138.3556  166.0685 O.2     1  UNL1       -0.2703
     14 H         142.4356  139.9178  169.0353 H       1  UNL1        0.1453
     15 H         143.2531  138.4338  168.8425 H       1  UNL1        0.1453
     16 O         139.8313  139.8272  167.2482 O.3     1  UNL1       -0.4790
     17 C         139.1808  138.5073  165.1070 C.3     1  UNL1        0.0472
     18 C         138.8632  138.9576  166.5021 C.3     1  UNL1        0.1661
     19 C         137.5776  138.5382  167.1512 C.3     1  UNL1        0.0472
     20 O         138.7317  144.4758  164.7123 O.3     1  UNL1       -0.4584
     21 C         137.8349  144.3426  163.5173 C.3     1  UNL1        0.2264
     22 C         137.8610  143.0877  162.6961 C.3     1  UNL1        0.1158
     23 C         137.4842  141.7155  163.1705 C.3     1  UNL1        0.0329
     24 C         137.6589  140.7644  162.0238 C.3     1  UNL1        0.0869
     25 C         138.1438  141.5488  160.8407 C.2     1  UNL1        0.2226
     26 O         138.4500  140.9946  159.4809 O.2     1  UNL1       -0.2751
     27 N         138.2687  142.9847  161.2562 N.am    1  UNL1       -0.3024
     28 H         138.5660  143.7289  160.6843 H       1  UNL1        0.1495
@<TRIPOS>BOND
     1    17    18    1
     2    18    19    1
     3    18    16    1
     4    16     1    1
     5     1     2   ar
     6     2     3   ar
     7     3     4   ar
     8     4    20    1
     9    20    21    1
    10    22    21    1
    11    22    23    1
    12    23    24    1
    13    24    25    1
    14    25    26    2
    15    25    27   am
    16     4     5   ar
    17     5     6   ar
    18     6     7   ar
    19     7     8   ar
    20     8     9   ar
    21     9    10   ar
    22    10    11    1
    23    11    12   am
    24    11    13    2
    25    10     1   ar
    26     8     3   ar
    27    27    22    1
    28    27    28    1
    29    12    14    1
    30    12    15    1
