@<TRIPOS>MOLECULE
*****
 33 37 0 0 0
SMALL
GASTEIGER

@<TRIPOS>ATOM
      1 C         141.5098  142.1380  160.5501 C.ar    1  UNL1        0.0537
      2 C         140.8637  140.9845  159.8416 C.ar    1  UNL1        0.0060
      3 C         140.2050  139.8929  160.6318 C.ar    1  UNL1        0.0173
      4 C         140.1924  139.9547  162.1305 C.ar    1  UNL1        0.0594
      5 C         140.8385  141.1082  162.8390 C.ar    1  UNL1        0.0130
      6 C         141.4972  142.1998  162.0488 C.ar    1  UNL1        0.0057
      7 C         140.6695  140.8991  164.3147 C.ar    1  UNL1       -0.0091
      8 C         139.9190  139.6164  164.5182 C.ar    1  UNL1        0.0331
      9 N         139.6241  139.0327  163.1683 N.ar    1  UNL1       -0.3289
     10 C         138.8898  137.7520  162.9028 C.3     1  UNL1        0.1301
     11 C         139.6011  139.1457  165.9065 C.3     1  UNL1        0.0435
     12 C         140.0337  139.9577  167.0913 C.3     1  UNL1        0.0066
     13 C         140.7843  141.2404  166.8878 C.3     1  UNL1        0.0049
     14 C         141.1022  141.7111  165.4994 C.3     1  UNL1        0.0275
     15 C         141.2169  142.0523  168.0725 C.3     1  UNL1        0.0053
     16 C         140.2880  143.0714  168.6628 C.3     1  UNL1        0.0322
     17 C         140.7206  143.8834  169.8475 C.3     1  UNL1        0.1422
     18 O         142.0821  143.6762  170.4418 O.3     1  UNL1       -0.3538
     19 C         143.0110  142.6571  169.8515 C.3     1  UNL1        0.1422
     20 C         142.5785  141.8452  168.6669 C.3     1  UNL1        0.0322
     21 N         141.4139  144.4870  159.4442 N.am    1  UNL1       -0.2678
     22 C         142.1685  143.2297  159.7600 C.2     1  UNL1        0.2494
     23 O         143.5818  143.0641  159.2856 O.2     1  UNL1       -0.2699
     24 C         141.7019  145.7924  157.2164 C.3     1  UNL1        0.0233
     25 C         142.0727  145.5788  158.6541 C.3     1  UNL1        0.0942
     26 C         140.0006  144.6527  159.9186 C.3     1  UNL1        0.1793
     27 C         139.7228  144.9250  161.3674 C.2     1  UNL1        0.2427
     28 O         140.3642  146.0987  162.0463 O.2     1  UNL1       -0.2732
     29 N         138.8036  144.0235  162.1371 N.am    1  UNL1       -0.3046
     30 H         138.3827  143.2532  161.6915 H       1  UNL1        0.1494
     31 C         138.5258  144.2958  163.5858 C.3     1  UNL1        0.0717
     32 C         137.5877  144.2691  164.7559 C.3     1  UNL1        0.0213
     33 C         138.9827  144.7939  164.9248 C.3     1  UNL1        0.0213
@<TRIPOS>BOND
     1    24    25    1
     2    25    21    1
     3    21    26    1
     4    26    27    1
     5    27    28    2
     6    27    29   am
     7    29    31    1
     8    31    32    1
     9    32    33    1
    10    21    22   am
    11    22    23    2
    12    22     1    1
    13     1     2   ar
    14     2     3   ar
    15     3     4   ar
    16     4     5   ar
    17     5     6   ar
    18     5     7   ar
    19     7     8   ar
    20     8     9   ar
    21     9    10    1
    22     8    11    1
    23    11    12    1
    24    12    13    1
    25    13    15    1
    26    15    16    1
    27    16    17    1
    28    17    18    1
    29    18    19    1
    30    19    20    1
    31    13    14    1
    32    33    31    1
    33     6     1   ar
    34    14     7    1
    35     9     4   ar
    36    20    15    1
    37    29    30    1
@<TRIPOS>MOLECULE
*****
 33 37 0 0 0
SMALL
GASTEIGER

@<TRIPOS>ATOM
      1 C         140.1761  142.8682  160.8416 C.ar    1  UNL1        0.0537
      2 C         139.6351  141.6650  160.1277 C.ar    1  UNL1        0.0060
      3 C         139.3170  140.4169  160.8965 C.ar    1  UNL1        0.0173
      4 C         139.5399  140.3720  162.3792 C.ar    1  UNL1        0.0594
      5 C         140.0809  141.5752  163.0930 C.ar    1  UNL1        0.0130
      6 C         140.3990  142.8233  162.3242 C.ar    1  UNL1        0.0057
      7 C         140.1958  141.2370  164.5499 C.ar    1  UNL1       -0.0091
      8 C         139.7258  139.8248  164.7364 C.ar    1  UNL1        0.0331
      9 N         139.3204  139.2902  163.3949 N.ar    1  UNL1       -0.3289
     10 C         138.7889  137.9152  163.1176 C.3     1  UNL1        0.1301
     11 C         139.7277  139.2082  166.1038 C.3     1  UNL1        0.0435
     12 C         140.1996  140.0037  167.2847 C.3     1  UNL1        0.0066
     13 C         140.6696  141.4160  167.0982 C.3     1  UNL1        0.0049
     14 C         140.6677  142.0326  165.7307 C.3     1  UNL1        0.0275
     15 C         141.1415  142.2115  168.2790 C.3     1  UNL1        0.0053
     16 C         142.5036  141.9621  168.8554 C.3     1  UNL1        0.0322
     17 C         142.9755  142.7576  170.0362 C.3     1  UNL1        0.1422
     18 O         142.0853  143.8026  170.6406 O.3     1  UNL1       -0.3538
     19 C         140.7231  144.0521  170.0642 C.3     1  UNL1        0.1422
     20 C         140.2512  143.2566  168.8834 C.3     1  UNL1        0.0322
     21 N         141.8257  144.2625  159.3978 N.am    1  UNL1       -0.2678
     22 C         140.4942  144.1163  160.0727 C.2     1  UNL1        0.2494
     23 O         139.4808  145.2182  159.9790 O.2     1  UNL1       -0.2699
     24 C         141.7355  145.6301  157.1906 C.3     1  UNL1        0.0233
     25 C         142.1438  145.5107  158.6290 C.3     1  UNL1        0.0942
     26 C         142.8392  143.1607  159.4915 C.3     1  UNL1        0.1793
     27 C         143.5687  142.9203  160.7800 C.2     1  UNL1        0.2427
     28 O         143.8211  144.0594  161.7227 O.2     1  UNL1       -0.2732
     29 N         144.0458  141.5409  161.1257 N.am    1  UNL1       -0.3046
     30 H         143.8801  140.7933  160.5069 H       1  UNL1        0.1494
     31 C         144.7754  141.3005  162.4141 C.3     1  UNL1        0.0717
     32 C         145.0528  140.4360  163.6081 C.3     1  UNL1        0.0213
     33 C         145.7615  141.7487  163.4516 C.3     1  UNL1        0.0213
@<TRIPOS>BOND
     1    24    25    1
     2    25    21    1
     3    21    26    1
     4    26    27    1
     5    27    28    2
     6    27    29   am
     7    29    31    1
     8    31    32    1
     9    32    33    1
    10    21    22   am
    11    22    23    2
    12    22     1    1
    13     1     2   ar
    14     2     3   ar
    15     3     4   ar
    16     4     5   ar
    17     5     6   ar
    18     5     7   ar
    19     7     8   ar
    20     8     9   ar
    21     9    10    1
    22     8    11    1
    23    11    12    1
    24    12    13    1
    25    13    15    1
    26    15    16    1
    27    16    17    1
    28    17    18    1
    29    18    19    1
    30    19    20    1
    31    13    14    1
    32    33    31    1
    33     6     1   ar
    34    14     7    1
    35     9     4   ar
    36    20    15    1
    37    29    30    1
@<TRIPOS>MOLECULE
*****
 33 37 0 0 0
SMALL
GASTEIGER

@<TRIPOS>ATOM
      1 C         141.4954  140.9525  160.4721 C.ar    1  UNL1        0.0537
      2 C         140.5340  141.8832  159.7942 C.ar    1  UNL1        0.0060
      3 C         139.7198  142.8441  160.6088 C.ar    1  UNL1        0.0173
      4 C         139.8669  142.8742  162.1013 C.ar    1  UNL1        0.0594
      5 C         140.8283  141.9435  162.7791 C.ar    1  UNL1        0.0130
      6 C         141.6425  140.9826  161.9645 C.ar    1  UNL1        0.0057
      7 C         140.7590  142.2001  164.2554 C.ar    1  UNL1       -0.0091
      8 C         139.7548  143.2895  164.4900 C.ar    1  UNL1        0.0331
      9 N         139.2035  143.7061  163.1587 N.ar    1  UNL1       -0.3289
     10 C         138.1701  144.7681  162.9256 C.3     1  UNL1        0.1301
     11 C         139.4722  143.7612  165.8855 C.3     1  UNL1        0.0435
     12 C         140.1939  143.1437  167.0466 C.3     1  UNL1        0.0066
     13 C         141.1981  142.0543  166.8120 C.3     1  UNL1        0.0049
     14 C         141.4806  141.5826  165.4164 C.3     1  UNL1        0.0275
     15 C         141.9197  141.4368  167.9730 C.3     1  UNL1        0.0053
     16 C         141.7076  139.9892  168.3037 C.3     1  UNL1        0.0322
     17 C         142.4292  139.3716  169.4647 C.3     1  UNL1        0.1422
     18 O         143.3628  140.2016  170.2949 O.3     1  UNL1       -0.3538
     19 C         143.5749  141.6492  169.9642 C.3     1  UNL1        0.1422
     20 C         142.8533  142.2668  168.8032 C.3     1  UNL1        0.0322
     21 N         141.7972  138.6057  159.3989 N.am    1  UNL1       -0.2678
     22 C         142.3097  139.9915  159.6574 C.2     1  UNL1        0.2494
     23 O         143.6364  140.4164  159.1014 O.2     1  UNL1       -0.2699
     24 C         142.3714  137.5213  157.1088 C.3     1  UNL1        0.0233
     25 C         142.6115  137.6447  158.5842 C.3     1  UNL1        0.0942
     26 C         140.4705  138.1808  159.9549 C.3     1  UNL1        0.1793
     27 C         140.2894  138.0384  161.4372 C.2     1  UNL1        0.2427
     28 O         141.2852  137.2580  162.2429 O.2     1  UNL1       -0.2732
     29 N         139.1123  138.6764  162.1136 N.am    1  UNL1       -0.3046
     30 H         138.4587  139.1886  161.5847 H       1  UNL1        0.1494
     31 C         138.9312  138.5340  163.5958 C.3     1  UNL1        0.0717
     32 C         138.6316  139.1452  164.9325 C.3     1  UNL1        0.0213
     33 C         138.9170  137.6764  164.8263 C.3     1  UNL1        0.0213
@<TRIPOS>BOND
     1    24    25    1
     2    25    21    1
     3    21    26    1
     4    26    27    1
     5    27    28    2
     6    27    29   am
     7    29    31    1
     8    31    32    1
     9    32    33    1
    10    21    22   am
    11    22    23    2
    12    22     1    1
    13     1     2   ar
    14     2     3   ar
    15     3     4   ar
    16     4     5   ar
    17     5     6   ar
    18     5     7   ar
    19     7     8   ar
    20     8     9   ar
    21     9    10    1
    22     8    11    1
    23    11    12    1
    24    12    13    1
    25    13    15    1
    26    15    16    1
    27    16    17    1
    28    17    18    1
    29    18    19    1
    30    19    20    1
    31    13    14    1
    32    33    31    1
    33     6     1   ar
    34    14     7    1
    35     9     4   ar
    36    20    15    1
    37    29    30    1
@<TRIPOS>MOLECULE
*****
 33 37 0 0 0
SMALL
GASTEIGER

@<TRIPOS>ATOM
      1 C         140.5857  140.2956  159.9798 C.ar    1  UNL1        0.0537
      2 C         140.1770  141.5254  159.2246 C.ar    1  UNL1        0.0060
      3 C         139.8637  142.7912  159.9659 C.ar    1  UNL1        0.0173
      4 C         139.9590  142.8272  161.4624 C.ar    1  UNL1        0.0594
      5 C         140.3677  141.5973  162.2177 C.ar    1  UNL1        0.0130
      6 C         140.6810  140.3315  161.4764 C.ar    1  UNL1        0.0057
      7 C         140.3742  141.9321  163.6798 C.ar    1  UNL1       -0.0091
      8 C         139.9697  143.3689  163.8283 C.ar    1  UNL1        0.0331
      9 N         139.7130  143.9221  162.4578 N.ar    1  UNL1       -0.3289
     10 C         139.2855  145.3240  162.1388 C.3     1  UNL1        0.1301
     11 C         139.8872  143.9877  165.1921 C.3     1  UNL1        0.0435
     12 C         140.2093  143.1699  166.4076 C.3     1  UNL1        0.0066
     13 C         140.6139  141.7331  166.2592 C.3     1  UNL1        0.0049
     14 C         140.6964  141.1142  164.8952 C.3     1  UNL1        0.0275
     15 C         140.9361  140.9152  167.4746 C.3     1  UNL1        0.0053
     16 C         142.2385  140.1757  167.5574 C.3     1  UNL1        0.0322
     17 C         142.5606  139.3578  168.7728 C.3     1  UNL1        0.1422
     18 O         141.5804  139.2794  169.9054 O.3     1  UNL1       -0.3538
     19 C         140.2780  140.0189  169.8227 C.3     1  UNL1        0.1422
     20 C         139.9558  140.8368  168.6073 C.3     1  UNL1        0.0322
     21 N         142.3184  138.7016  158.8812 N.am    1  UNL1       -0.2678
     22 C         140.8990  139.0297  159.2385 C.2     1  UNL1        0.2494
     23 O         139.7930  138.0921  158.8546 O.2     1  UNL1       -0.2699
     24 C         142.7343  137.4486  156.6435 C.3     1  UNL1        0.0233
     25 C         142.6317  137.4357  158.1399 C.3     1  UNL1        0.0942
     26 C         143.4244  139.6392  159.2651 C.3     1  UNL1        0.1793
     27 C         144.0010  139.5923  160.6492 C.2     1  UNL1        0.2427
     28 O         144.3539  138.2733  161.2702 O.2     1  UNL1       -0.2732
     29 N         144.2245  140.8643  161.4121 N.am    1  UNL1       -0.3046
     30 H         143.9928  141.7299  161.0044 H       1  UNL1        0.1494
     31 C         144.8010  140.8173  162.7960 C.3     1  UNL1        0.0717
     32 C         144.8444  140.2061  164.1652 C.3     1  UNL1        0.0213
     33 C         145.7561  141.3473  163.8240 C.3     1  UNL1        0.0213
@<TRIPOS>BOND
     1    24    25    1
     2    25    21    1
     3    21    26    1
     4    26    27    1
     5    27    28    2
     6    27    29   am
     7    29    31    1
     8    31    32    1
     9    32    33    1
    10    21    22   am
    11    22    23    2
    12    22     1    1
    13     1     2   ar
    14     2     3   ar
    15     3     4   ar
    16     4     5   ar
    17     5     6   ar
    18     5     7   ar
    19     7     8   ar
    20     8     9   ar
    21     9    10    1
    22     8    11    1
    23    11    12    1
    24    12    13    1
    25    13    15    1
    26    15    16    1
    27    16    17    1
    28    17    18    1
    29    18    19    1
    30    19    20    1
    31    13    14    1
    32    33    31    1
    33     6     1   ar
    34    14     7    1
    35     9     4   ar
    36    20    15    1
    37    29    30    1
@<TRIPOS>MOLECULE
*****
 33 37 0 0 0
SMALL
GASTEIGER

@<TRIPOS>ATOM
      1 C         142.1470  141.1674  159.7065 C.ar    1  UNL1        0.0537
      2 C         141.8630  142.3193  158.7887 C.ar    1  UNL1        0.0060
      3 C         141.2087  143.5593  159.3219 C.ar    1  UNL1        0.0173
      4 C         140.8384  143.6473  160.7728 C.ar    1  UNL1        0.0594
      5 C         141.1224  142.4954  161.6905 C.ar    1  UNL1        0.0130
      6 C         141.7767  141.2554  161.1574 C.ar    1  UNL1        0.0057
      7 C         140.6476  142.8686  163.0636 C.ar    1  UNL1       -0.0091
      8 C         140.0701  144.2513  162.9944 C.ar    1  UNL1        0.0331
      9 N         140.1880  144.7326  161.5787 N.ar    1  UNL1       -0.3289
     10 C         139.7351  146.0651  161.0598 C.3     1  UNL1        0.1301
     11 C         139.5114  144.8933  164.2296 C.3     1  UNL1        0.0435
     12 C         139.5303  144.1528  165.5339 C.3     1  UNL1        0.0066
     13 C         140.1078  142.7701  165.6031 C.3     1  UNL1        0.0049
     14 C         140.6664  142.1280  164.3678 C.3     1  UNL1        0.0275
     15 C         140.1266  142.0296  166.9074 C.3     1  UNL1        0.0053
     16 C         140.6279  142.7079  168.1478 C.3     1  UNL1        0.0322
     17 C         140.6468  141.9673  169.4521 C.3     1  UNL1        0.1422
     18 O         140.1644  140.5485  169.5160 O.3     1  UNL1       -0.3538
     19 C         139.6631  139.8702  168.2756 C.3     1  UNL1        0.1422
     20 C         139.6442  140.6107  166.9713 C.3     1  UNL1        0.0322
     21 N         141.9665  138.7343  158.8133 N.am    1  UNL1       -0.2678
     22 C         142.8014  139.9273  159.1733 C.2     1  UNL1        0.2494
     23 O         144.2906  139.8804  159.0002 O.2     1  UNL1       -0.2699
     24 C         142.7089  137.2700  156.7997 C.3     1  UNL1        0.0233
     25 C         142.6208  137.4943  158.2802 C.3     1  UNL1        0.0942
     26 C         140.4773  138.7813  158.9865 C.3     1  UNL1        0.1793
     27 C         139.8761  138.6362  160.3531 C.2     1  UNL1        0.2427
     28 O         138.4891  139.1410  160.6198 O.2     1  UNL1       -0.2732
     29 N         140.6622  137.9863  161.4530 N.am    1  UNL1       -0.3046
     30 H         141.5726  137.6550  161.2780 H       1  UNL1        0.1494
     31 C         140.0612  137.8412  162.8196 C.3     1  UNL1        0.0717
     32 C         140.2174  137.8137  164.3112 C.3     1  UNL1        0.0213
     33 C         138.8640  137.6174  163.6951 C.3     1  UNL1        0.0213
@<TRIPOS>BOND
     1    24    25    1
     2    25    21    1
     3    21    26    1
     4    26    27    1
     5    27    28    2
     6    27    29   am
     7    29    31    1
     8    31    32    1
     9    32    33    1
    10    21    22   am
    11    22    23    2
    12    22     1    1
    13     1     2   ar
    14     2     3   ar
    15     3     4   ar
    16     4     5   ar
    17     5     6   ar
    18     5     7   ar
    19     7     8   ar
    20     8     9   ar
    21     9    10    1
    22     8    11    1
    23    11    12    1
    24    12    13    1
    25    13    15    1
    26    15    16    1
    27    16    17    1
    28    17    18    1
    29    18    19    1
    30    19    20    1
    31    13    14    1
    32    33    31    1
    33     6     1   ar
    34    14     7    1
    35     9     4   ar
    36    20    15    1
    37    29    30    1
@<TRIPOS>MOLECULE
*****
 33 37 0 0 0
SMALL
GASTEIGER

@<TRIPOS>ATOM
      1 C         142.5842  138.6573  160.7603 C.ar    1  UNL1        0.0537
      2 C         142.1490  139.9902  160.2275 C.ar    1  UNL1        0.0060
      3 C         141.9494  140.1796  158.7530 C.ar    1  UNL1        0.0173
      4 C         142.1850  139.0360  157.8113 C.ar    1  UNL1        0.0594
      5 C         142.6202  137.7031  158.3441 C.ar    1  UNL1        0.0130
      6 C         142.8197  137.5138  159.8186 C.ar    1  UNL1        0.0057
      7 C         142.7744  136.7673  157.1820 C.ar    1  UNL1       -0.0091
      8 C         142.4345  137.5219  155.9309 C.ar    1  UNL1        0.0331
      9 N         142.0703  138.9240  156.3198 N.ar    1  UNL1       -0.3289
     10 C         141.6628  140.0215  155.3820 C.3     1  UNL1        0.1301
     11 C         142.5007  136.8347  154.5992 C.3     1  UNL1        0.0435
     12 C         142.9067  135.3928  154.5186 C.3     1  UNL1        0.0066
     13 C         143.2465  134.6383  155.7697 C.3     1  UNL1        0.0049
     14 C         143.1803  135.3256  157.1014 C.3     1  UNL1        0.0275
     15 C         143.6525  133.1965  155.6891 C.3     1  UNL1        0.0053
     16 C         144.4767  132.5871  156.7842 C.3     1  UNL1        0.0322
     17 C         144.8827  131.1454  156.7036 C.3     1  UNL1        0.1422
     18 O         144.4645  130.3131  155.5280 O.3     1  UNL1       -0.3538
     19 C         143.6403  130.9225  154.4329 C.3     1  UNL1        0.1422
     20 C         143.2343  132.3642  154.5134 C.3     1  UNL1        0.0322
     21 N         141.6518  137.9772  163.0880 N.am    1  UNL1       -0.2678
     22 C         142.7838  138.4679  162.2349 C.2     1  UNL1        0.2494
     23 O         144.1154  138.7692  162.8563 O.2     1  UNL1       -0.2699
     24 C         141.7369  138.9599  165.4916 C.3     1  UNL1        0.0233
     25 C         141.8514  137.7878  164.5626 C.3     1  UNL1        0.0942
     26 C         140.3202  137.6760  162.4667 C.3     1  UNL1        0.1793
     27 C         139.2545  138.7310  162.4284 C.2     1  UNL1        0.2427
     28 O         137.8422  138.3584  162.0872 O.2     1  UNL1       -0.2732
     29 N         139.6013  140.1586  162.7314 N.am    1  UNL1       -0.3046
     30 H         140.5282  140.4031  162.9554 H       1  UNL1        0.1494
     31 C         138.5357  141.2135  162.6932 C.3     1  UNL1        0.0717
     32 C         137.9673  142.4646  162.0917 C.3     1  UNL1        0.0213
     33 C         137.2584  141.7898  163.2284 C.3     1  UNL1        0.0213
@<TRIPOS>BOND
     1    24    25    1
     2    25    21    1
     3    21    26    1
     4    26    27    1
     5    27    28    2
     6    27    29   am
     7    29    31    1
     8    31    32    1
     9    32    33    1
    10    21    22   am
    11    22    23    2
    12    22     1    1
    13     1     2   ar
    14     2     3   ar
    15     3     4   ar
    16     4     5   ar
    17     5     6   ar
    18     5     7   ar
    19     7     8   ar
    20     8     9   ar
    21     9    10    1
    22     8    11    1
    23    11    12    1
    24    12    13    1
    25    13    15    1
    26    15    16    1
    27    16    17    1
    28    17    18    1
    29    18    19    1
    30    19    20    1
    31    13    14    1
    32    33    31    1
    33     6     1   ar
    34    14     7    1
    35     9     4   ar
    36    20    15    1
    37    29    30    1
@<TRIPOS>MOLECULE
*****
 33 37 0 0 0
SMALL
GASTEIGER

@<TRIPOS>ATOM
      1 C         141.4759  139.4069  162.7196 C.ar    1  UNL1        0.0537
      2 C         141.8864  140.8491  162.7591 C.ar    1  UNL1        0.0060
      3 C         142.5167  141.4827  161.5544 C.ar    1  UNL1        0.0173
      4 C         142.7365  140.6741  160.3103 C.ar    1  UNL1        0.0594
      5 C         142.3259  139.2319  160.2708 C.ar    1  UNL1        0.0130
      6 C         141.6956  138.5984  161.4755 C.ar    1  UNL1        0.0057
      7 C         142.6659  138.6902  158.9140 C.ar    1  UNL1       -0.0091
      8 C         143.2865  139.7976  158.1149 C.ar    1  UNL1        0.0331
      9 N         143.3301  141.0237  158.9778 N.ar    1  UNL1       -0.3289
     10 C         143.8722  142.3641  158.5785 C.3     1  UNL1        0.1301
     11 C         143.7317  139.5464  156.7047 C.3     1  UNL1        0.0435
     12 C         143.5562  138.1878  156.0935 C.3     1  UNL1        0.0066
     13 C         142.9356  137.0804  156.8926 C.3     1  UNL1        0.0049
     14 C         142.4904  137.3316  158.3029 C.3     1  UNL1        0.0275
     15 C         142.7602  135.7218  156.2815 C.3     1  UNL1        0.0053
     16 C         141.6155  135.4616  155.3478 C.3     1  UNL1        0.0322
     17 C         141.4400  134.1030  154.7367 C.3     1  UNL1        0.1422
     18 O         142.4092  133.0047  155.0594 O.3     1  UNL1       -0.3538
     19 C         143.5540  133.2649  155.9931 C.3     1  UNL1        0.1422
     20 C         143.7295  134.6234  156.6042 C.3     1  UNL1        0.0322
     21 N         139.3617  138.8582  164.1265 N.am    1  UNL1       -0.2678
     22 C         140.8455  138.7733  163.9243 C.2     1  UNL1        0.2494
     23 O         141.6991  138.0547  164.9268 O.2     1  UNL1       -0.2699
     24 C         138.4260  139.0553  166.5422 C.3     1  UNL1        0.0233
     25 C         138.7314  138.2246  165.3312 C.3     1  UNL1        0.0942
     26 C         138.5081  139.5768  163.1240 C.3     1  UNL1        0.1793
     27 C         138.1585  141.0203  163.3341 C.2     1  UNL1        0.2427
     28 O         136.9990  141.6258  162.6000 O.2     1  UNL1       -0.2732
     29 N         138.9684  141.8583  164.2785 N.am    1  UNL1       -0.3046
     30 H         139.7294  141.4609  164.7604 H       1  UNL1        0.1494
     31 C         138.6189  143.3018  164.4887 C.3     1  UNL1        0.0717
     32 C         138.9089  144.7554  164.2587 C.3     1  UNL1        0.0213
     33 C         137.7235  144.3483  165.0827 C.3     1  UNL1        0.0213
@<TRIPOS>BOND
     1    24    25    1
     2    25    21    1
     3    21    26    1
     4    26    27    1
     5    27    28    2
     6    27    29   am
     7    29    31    1
     8    31    32    1
     9    32    33    1
    10    21    22   am
    11    22    23    2
    12    22     1    1
    13     1     2   ar
    14     2     3   ar
    15     3     4   ar
    16     4     5   ar
    17     5     6   ar
    18     5     7   ar
    19     7     8   ar
    20     8     9   ar
    21     9    10    1
    22     8    11    1
    23    11    12    1
    24    12    13    1
    25    13    15    1
    26    15    16    1
    27    16    17    1
    28    17    18    1
    29    18    19    1
    30    19    20    1
    31    13    14    1
    32    33    31    1
    33     6     1   ar
    34    14     7    1
    35     9     4   ar
    36    20    15    1
    37    29    30    1
@<TRIPOS>MOLECULE
*****
 33 37 0 0 0
SMALL
GASTEIGER

@<TRIPOS>ATOM
      1 C         140.0554  143.1519  160.4382 C.ar    1  UNL1        0.0537
      2 C         139.3188  142.0688  159.7071 C.ar    1  UNL1        0.0060
      3 C         138.8778  140.8361  160.4390 C.ar    1  UNL1        0.0173
      4 C         139.1732  140.6864  161.9020 C.ar    1  UNL1        0.0594
      5 C         139.9097  141.7694  162.6331 C.ar    1  UNL1        0.0130
      6 C         140.3508  143.0022  161.9011 C.ar    1  UNL1        0.0057
      7 C         140.0573  141.3450  164.0641 C.ar    1  UNL1       -0.0091
      8 C         139.4120  139.9996  164.2176 C.ar    1  UNL1        0.0331
      9 N         138.8656  139.5925  162.8813 N.ar    1  UNL1       -0.3289
     10 C         138.1391  138.3158  162.5776 C.3     1  UNL1        0.1301
     11 C         139.4054  139.3190  165.5542 C.3     1  UNL1        0.0435
     12 C         140.0441  139.9838  166.7376 C.3     1  UNL1        0.0066
     13 C         140.6894  141.3292  166.5842 C.3     1  UNL1        0.0049
     14 C         140.6960  142.0098  165.2474 C.3     1  UNL1        0.0275
     15 C         141.3280  141.9940  167.7674 C.3     1  UNL1        0.0053
     16 C         140.5141  142.8882  168.6551 C.3     1  UNL1        0.0322
     17 C         141.1528  143.5530  169.8383 C.3     1  UNL1        0.1422
     18 O         142.6053  143.3236  170.1339 O.3     1  UNL1       -0.3538
     19 C         143.4192  142.4295  169.2463 C.3     1  UNL1        0.1422
     20 C         142.7806  141.7646  168.0631 C.3     1  UNL1        0.0322
     21 N         141.6190  144.3067  158.7144 N.am    1  UNL1       -0.2678
     22 C         140.4965  144.3847  159.7063 C.2     1  UNL1        0.2494
     23 O         139.8151  145.6954  159.9663 O.2     1  UNL1       -0.2699
     24 C         141.3391  145.9729  156.7406 C.3     1  UNL1        0.0233
     25 C         142.0601  145.5396  157.9825 C.3     1  UNL1        0.0942
     26 C         142.3004  142.9960  158.4543 C.3     1  UNL1        0.1793
     27 C         143.5621  142.9544  157.6441 C.2     1  UNL1        0.2427
     28 O         143.5137  143.2112  156.1670 O.2     1  UNL1       -0.2732
     29 N         144.8722  142.6559  158.3109 N.am    1  UNL1       -0.3046
     30 H         144.9039  142.4874  159.2803 H       1  UNL1        0.1494
     31 C         146.1338  142.6143  157.5007 C.3     1  UNL1        0.0717
     32 C         146.8709  142.1894  156.2653 C.3     1  UNL1        0.0213
     33 C         147.5820  142.9671  157.3327 C.3     1  UNL1        0.0213
@<TRIPOS>BOND
     1    24    25    1
     2    25    21    1
     3    21    26    1
     4    26    27    1
     5    27    28    2
     6    27    29   am
     7    29    31    1
     8    31    32    1
     9    32    33    1
    10    21    22   am
    11    22    23    2
    12    22     1    1
    13     1     2   ar
    14     2     3   ar
    15     3     4   ar
    16     4     5   ar
    17     5     6   ar
    18     5     7   ar
    19     7     8   ar
    20     8     9   ar
    21     9    10    1
    22     8    11    1
    23    11    12    1
    24    12    13    1
    25    13    15    1
    26    15    16    1
    27    16    17    1
    28    17    18    1
    29    18    19    1
    30    19    20    1
    31    13    14    1
    32    33    31    1
    33     6     1   ar
    34    14     7    1
    35     9     4   ar
    36    20    15    1
    37    29    30    1
@<TRIPOS>MOLECULE
*****
 33 37 0 0 0
SMALL
GASTEIGER

@<TRIPOS>ATOM
      1 C         142.8837  139.6394  160.2405 C.ar    1  UNL1        0.0537
      2 C         141.8287  140.6342  159.8567 C.ar    1  UNL1        0.0060
      3 C         140.9354  140.3646  158.6823 C.ar    1  UNL1        0.0173
      4 C         141.0971  139.1002  157.8916 C.ar    1  UNL1        0.0594
      5 C         142.1520  138.1054  158.2754 C.ar    1  UNL1        0.0130
      6 C         143.0453  138.3749  159.4498 C.ar    1  UNL1        0.0057
      7 C         142.0762  136.9557  157.3150 C.ar    1  UNL1       -0.0091
      8 C         140.9744  137.2399  156.3376 C.ar    1  UNL1        0.0331
      9 N         140.3692  138.5653  156.6940 N.ar    1  UNL1       -0.3289
     10 C         139.2354  139.2378  155.9784 C.3     1  UNL1        0.1301
     11 C         140.6646  136.2551  155.2495 C.3     1  UNL1        0.0435
     12 C         141.4566  134.9860  155.1386 C.3     1  UNL1        0.0066
     13 C         142.5584  134.7017  156.1160 C.3     1  UNL1        0.0049
     14 C         142.8682  135.6866  157.2042 C.3     1  UNL1        0.0275
     15 C         143.3503  133.4327  156.0052 C.3     1  UNL1        0.0053
     16 C         143.1610  132.5315  154.8211 C.3     1  UNL1        0.0322
     17 C         143.9529  131.2624  154.7103 C.3     1  UNL1        0.1422
     18 O         144.9342  130.8946  155.7835 O.3     1  UNL1       -0.3538
     19 C         145.1236  131.7958  156.9675 C.3     1  UNL1        0.1422
     20 C         144.3317  133.0649  157.0784 C.3     1  UNL1        0.0322
     21 N         143.6210  139.1102  162.6749 N.am    1  UNL1       -0.2678
     22 C         143.7771  139.9089  161.4149 C.2     1  UNL1        0.2494
     23 O         144.8265  140.9773  161.3293 O.2     1  UNL1       -0.2699
     24 C         144.2600  140.5686  164.7278 C.3     1  UNL1        0.0233
     25 C         144.5144  139.3797  163.8494 C.3     1  UNL1        0.0942
     26 C         142.5715  138.0418  162.7605 C.3     1  UNL1        0.1793
     27 C         141.5167  138.1103  163.8248 C.2     1  UNL1        0.2427
     28 O         141.1226  136.8702  164.5710 O.2     1  UNL1       -0.2732
     29 N         140.8559  139.4188  164.1428 N.am    1  UNL1       -0.3046
     30 H         141.1146  140.2327  163.6530 H       1  UNL1        0.1494
     31 C         139.8011  139.4873  165.2070 C.3     1  UNL1        0.0717
     32 C         138.3554  139.4667  165.6063 C.3     1  UNL1        0.0213
     33 C         139.4198  139.6265  166.6510 C.3     1  UNL1        0.0213
@<TRIPOS>BOND
     1    24    25    1
     2    25    21    1
     3    21    26    1
     4    26    27    1
     5    27    28    2
     6    27    29   am
     7    29    31    1
     8    31    32    1
     9    32    33    1
    10    21    22   am
    11    22    23    2
    12    22     1    1
    13     1     2   ar
    14     2     3   ar
    15     3     4   ar
    16     4     5   ar
    17     5     6   ar
    18     5     7   ar
    19     7     8   ar
    20     8     9   ar
    21     9    10    1
    22     8    11    1
    23    11    12    1
    24    12    13    1
    25    13    15    1
    26    15    16    1
    27    16    17    1
    28    17    18    1
    29    18    19    1
    30    19    20    1
    31    13    14    1
    32    33    31    1
    33     6     1   ar
    34    14     7    1
    35     9     4   ar
    36    20    15    1
    37    29    30    1
