@<TRIPOS>MOLECULE
*****
 36 39 0 0 0
SMALL
GASTEIGER

@<TRIPOS>ATOM
      1 C         140.5665  142.6788  165.9427 C.ar    1  UNL1        0.0003
      2 C         141.8796  142.3547  165.2941 C.ar    1  UNL1        0.0013
      3 C         142.3401  143.1381  164.1006 C.ar    1  UNL1        0.0147
      4 C         141.4875  144.2454  163.5559 C.ar    1  UNL1        0.0516
      5 C         140.1744  144.5694  164.2045 C.ar    1  UNL1        0.0147
      6 C         139.7138  143.7861  165.3979 C.ar    1  UNL1        0.0013
      7 C         139.1852  140.3287  169.5232 C.ar    1  UNL1        0.1757
      8 C         139.9748  141.5899  169.7129 C.ar    1  UNL1        0.0402
      9 C         140.4352  142.3732  168.5195 C.ar    1  UNL1        0.0034
     10 C         140.1060  141.8954  167.1362 C.ar    1  UNL1        0.0060
     11 C         139.3165  140.6342  166.9465 C.ar    1  UNL1        0.0746
     12 C         138.8444  139.9214  165.7139 C.ar    1  UNL1        0.1675
     13 N         139.0827  140.3561  164.2982 N.pl3   1  UNL1       -0.3400
     14 N         138.0923  138.6975  166.1457 N.ar    1  UNL1       -0.0622
     15 O         138.0995  138.6539  167.6451 O.2     1  UNL1       -0.3490
     16 C         138.8561  139.8509  168.1400 C.ar    1  UNL1        0.2117
     17 H         139.5910  141.1792  164.1149 H       1  UNL1        0.1438
     18 H         138.7309  139.8185  163.5523 H       1  UNL1        0.1438
     19 C         137.2748  139.1926  170.8684 C.3     1  UNL1        0.2526
     20 O         138.7248  139.5454  170.7167 O.3     1  UNL1       -0.4683
     21 N         141.9480  145.0287  162.3624 N.am    1  UNL1       -0.2681
     22 C         141.3895  144.7239  161.0041 C.2     1  UNL1        0.3082
     23 O         140.3703  143.6357  160.8392 O.2     1  UNL1       -0.2522
     24 N         141.8500  145.5072  159.8107 N.am    1  UNL1       -0.2681
     25 H         142.6169  145.7429  162.4706 H       1  UNL1        0.1564
     26 H         142.5189  146.2215  159.9189 H       1  UNL1        0.1564
     27 C         141.2914  145.2024  158.4524 C.ar    1  UNL1        0.0515
     28 C         141.4854  143.8427  157.8495 C.ar    1  UNL1        0.0147
     29 C         140.9268  143.5378  156.4912 C.ar    1  UNL1        0.0012
     30 C         140.1741  144.5927  155.7357 C.ar    1  UNL1        0.0039
     31 C         139.9801  145.9524  156.3386 C.ar    1  UNL1        0.0727
     32 C         140.5387  146.2573  157.6969 C.ar    1  UNL1        0.0186
     33 C         139.2274  147.0073  155.5831 C.3     1  UNL1        0.4186
     34 F         138.4747  148.0621  154.8276 F       1  UNL1       -0.1659
     35 F         138.8649  147.6749  156.8764 F       1  UNL1       -0.1659
     36 F         139.5899  146.3397  154.2897 F       1  UNL1       -0.1659
@<TRIPOS>BOND
     1    19    20    1
     2    20     7    1
     3     7     8   ar
     4     8     9   ar
     5     9    10   ar
     6    10     1    1
     7     1     2   ar
     8     2     3   ar
     9     3     4   ar
    10     4    21    1
    11    21    22   am
    12    22    23    2
    13    22    24   am
    14    24    27    1
    15    27    28   ar
    16    28    29   ar
    17    29    30   ar
    18    30    31   ar
    19    31    33    1
    20    33    34    1
    21    33    35    1
    22    33    36    1
    23    31    32   ar
    24     4     5   ar
    25     5     6   ar
    26    10    11   ar
    27    11    12   ar
    28    12    13    1
    29    12    14   ar
    30    14    15   ar
    31    15    16   ar
    32    16     7   ar
    33     6     1   ar
    34    16    11   ar
    35    32    27   ar
    36    21    25    1
    37    24    26    1
    38    13    17    1
    39    13    18    1
@<TRIPOS>MOLECULE
*****
 36 39 0 0 0
SMALL
GASTEIGER

@<TRIPOS>ATOM
      1 C         142.1798  140.0217  164.7480 C.ar    1  UNL1        0.0003
      2 C         141.8619  141.0664  163.7196 C.ar    1  UNL1        0.0013
      3 C         142.3286  140.8924  162.3047 C.ar    1  UNL1        0.0147
      4 C         143.1131  139.6737  161.9183 C.ar    1  UNL1        0.0516
      5 C         143.4310  138.6291  162.9467 C.ar    1  UNL1        0.0147
      6 C         142.9643  138.8031  164.3616 C.ar    1  UNL1        0.0013
      7 C         140.7799  140.5440  168.9927 C.ar    1  UNL1        0.1757
      8 C         142.1408  141.0271  168.5870 C.ar    1  UNL1        0.0402
      9 C         142.6074  140.8530  167.1722 C.ar    1  UNL1        0.0034
     10 C         141.7131  140.1958  166.1629 C.ar    1  UNL1        0.0060
     11 C         140.3522  139.7128  166.5687 C.ar    1  UNL1        0.0746
     12 C         139.2582  139.0329  165.8001 C.ar    1  UNL1        0.1675
     13 N         139.2996  138.6639  164.3468 N.pl3   1  UNL1       -0.3400
     14 N         138.1154  138.7868  166.7400 N.ar    1  UNL1       -0.0622
     15 O         138.5031  139.3146  168.0895 O.2     1  UNL1       -0.3490
     16 C         139.8856  139.8869  167.9836 C.ar    1  UNL1        0.2117
     17 H         140.0990  138.8681  163.8097 H       1  UNL1        0.1438
     18 H         138.5274  138.2175  163.9300 H       1  UNL1        0.1438
     19 C         140.5068  142.0321  171.1049 C.3     1  UNL1        0.2526
     20 O         140.3133  140.7181  170.4077 O.3     1  UNL1       -0.4683
     21 N         143.5797  139.4997  160.5033 N.am    1  UNL1       -0.2681
     22 C         142.8101  138.6210  159.5625 C.2     1  UNL1        0.3082
     23 O         141.5738  137.9160  160.0364 O.2     1  UNL1       -0.2522
     24 N         143.2768  138.4470  158.1475 N.am    1  UNL1       -0.2681
     25 H         144.3912  139.9623  160.1922 H       1  UNL1        0.1564
     26 H         144.0882  138.9096  157.8364 H       1  UNL1        0.1564
     27 C         142.5071  137.5681  157.2067 C.ar    1  UNL1        0.0515
     28 C         141.3393  138.1240  156.4469 C.ar    1  UNL1        0.0147
     29 C         140.5697  137.2452  155.5061 C.ar    1  UNL1        0.0012
     30 C         140.9678  135.8104  155.3249 C.ar    1  UNL1        0.0039
     31 C         142.1356  135.2545  156.0846 C.ar    1  UNL1        0.0727
     32 C         142.9052  136.1333  157.0254 C.ar    1  UNL1        0.0186
     33 C         142.5337  133.8197  155.9034 C.3     1  UNL1        0.4186
     34 F         142.9317  132.3848  155.7221 F       1  UNL1       -0.1659
     35 F         143.9675  134.1868  156.1464 F       1  UNL1       -0.1659
     36 F         141.0998  133.4525  155.6603 F       1  UNL1       -0.1659
@<TRIPOS>BOND
     1    19    20    1
     2    20     7    1
     3     7     8   ar
     4     8     9   ar
     5     9    10   ar
     6    10     1    1
     7     1     2   ar
     8     2     3   ar
     9     3     4   ar
    10     4    21    1
    11    21    22   am
    12    22    23    2
    13    22    24   am
    14    24    27    1
    15    27    28   ar
    16    28    29   ar
    17    29    30   ar
    18    30    31   ar
    19    31    33    1
    20    33    34    1
    21    33    35    1
    22    33    36    1
    23    31    32   ar
    24     4     5   ar
    25     5     6   ar
    26    10    11   ar
    27    11    12   ar
    28    12    13    1
    29    12    14   ar
    30    14    15   ar
    31    15    16   ar
    32    16     7   ar
    33     6     1   ar
    34    16    11   ar
    35    32    27   ar
    36    21    25    1
    37    24    26    1
    38    13    17    1
    39    13    18    1
@<TRIPOS>MOLECULE
*****
 36 39 0 0 0
SMALL
GASTEIGER

@<TRIPOS>ATOM
      1 C         142.5230  142.0588  164.5411 C.ar    1  UNL1        0.0003
      2 C         143.7037  142.9380  164.2531 C.ar    1  UNL1        0.0013
      3 C         143.9376  143.4477  162.8619 C.ar    1  UNL1        0.0147
      4 C         142.9909  143.0780  161.7587 C.ar    1  UNL1        0.0516
      5 C         141.8102  142.1988  162.0467 C.ar    1  UNL1        0.0147
      6 C         141.5763  141.6891  163.4380 C.ar    1  UNL1        0.0013
      7 C         141.8213  140.5302  168.7150 C.ar    1  UNL1        0.1757
      8 C         141.2267  141.8386  168.2856 C.ar    1  UNL1        0.0402
      9 C         141.4606  142.3481  166.8944 C.ar    1  UNL1        0.0034
     10 C         142.2891  141.5492  165.9324 C.ar    1  UNL1        0.0060
     11 C         142.8837  140.2408  166.3618 C.ar    1  UNL1        0.0746
     12 C         143.7374  139.2411  165.6395 C.ar    1  UNL1        0.1675
     13 N         144.2138  139.3497  164.2213 N.pl3   1  UNL1       -0.3400
     14 N         144.0311  138.1137  166.5844 N.ar    1  UNL1       -0.0622
     15 O         143.3590  138.4166  167.8907 O.2     1  UNL1       -0.3490
     16 C         142.6498  139.7313  167.7531 C.ar    1  UNL1        0.2117
     17 H         143.9670  140.1325  163.6777 H       1  UNL1        0.1438
     18 H         144.7732  138.6381  163.8340 H       1  UNL1        0.1438
     19 C         141.6147  140.9702  171.2672 C.3     1  UNL1        0.2526
     20 O         141.5874  140.0207  170.1063 O.3     1  UNL1       -0.4683
     21 N         143.2248  143.5876  160.3675 N.am    1  UNL1       -0.2681
     22 C         143.8912  142.7104  159.3495 C.2     1  UNL1        0.3082
     23 O         144.3237  141.3234  159.7227 O.2     1  UNL1       -0.2522
     24 N         144.1251  143.2200  157.9583 N.am    1  UNL1       -0.2681
     25 H         142.9410  144.4979  160.1225 H       1  UNL1        0.1564
     26 H         143.8413  144.1303  157.7133 H       1  UNL1        0.1564
     27 C         144.7915  142.3427  156.9403 C.ar    1  UNL1        0.0515
     28 C         143.9999  141.2875  156.2264 C.ar    1  UNL1        0.0147
     29 C         144.6663  140.4101  155.2084 C.ar    1  UNL1        0.0012
     30 C         146.1244  140.5881  154.9044 C.ar    1  UNL1        0.0039
     31 C         146.9160  141.6434  155.6183 C.ar    1  UNL1        0.0727
     32 C         146.2496  142.5207  156.6363 C.ar    1  UNL1        0.0186
     33 C         148.3740  141.8213  155.3143 C.3     1  UNL1        0.4186
     34 F         149.8321  141.9993  155.0101 F       1  UNL1       -0.1659
     35 F         148.6150  142.2617  156.7277 F       1  UNL1       -0.1659
     36 F         148.1330  141.3810  153.9008 F       1  UNL1       -0.1659
@<TRIPOS>BOND
     1    19    20    1
     2    20     7    1
     3     7     8   ar
     4     8     9   ar
     5     9    10   ar
     6    10     1    1
     7     1     2   ar
     8     2     3   ar
     9     3     4   ar
    10     4    21    1
    11    21    22   am
    12    22    23    2
    13    22    24   am
    14    24    27    1
    15    27    28   ar
    16    28    29   ar
    17    29    30   ar
    18    30    31   ar
    19    31    33    1
    20    33    34    1
    21    33    35    1
    22    33    36    1
    23    31    32   ar
    24     4     5   ar
    25     5     6   ar
    26    10    11   ar
    27    11    12   ar
    28    12    13    1
    29    12    14   ar
    30    14    15   ar
    31    15    16   ar
    32    16     7   ar
    33     6     1   ar
    34    16    11   ar
    35    32    27   ar
    36    21    25    1
    37    24    26    1
    38    13    17    1
    39    13    18    1
@<TRIPOS>MOLECULE
*****
 36 39 0 0 0
SMALL
GASTEIGER

@<TRIPOS>ATOM
      1 C         140.7459  142.8996  164.7655 C.ar    1  UNL1        0.0003
      2 C         139.9567  144.1180  164.3878 C.ar    1  UNL1        0.0013
      3 C         140.2853  144.8640  163.1287 C.ar    1  UNL1        0.0147
      4 C         141.4032  144.3915  162.2472 C.ar    1  UNL1        0.0516
      5 C         142.1925  143.1731  162.6248 C.ar    1  UNL1        0.0147
      6 C         141.8638  142.4272  163.8840 C.ar    1  UNL1        0.0013
      7 C         139.7599  140.6620  168.5432 C.ar    1  UNL1        0.1757
      8 C         140.5609  141.9286  168.6090 C.ar    1  UNL1        0.0402
      9 C         140.8895  142.6744  167.3499 C.ar    1  UNL1        0.0034
     10 C         140.4172  142.1537  166.0247 C.ar    1  UNL1        0.0060
     11 C         139.6163  140.8871  165.9589 C.ar    1  UNL1        0.0746
     12 C         139.0188  140.1363  164.8060 C.ar    1  UNL1        0.1675
     13 N         139.1042  140.5268  163.3603 N.pl3   1  UNL1       -0.3400
     14 N         138.3208  138.9264  165.3528 N.ar    1  UNL1       -0.0622
     15 O         138.4870  138.9295  166.8435 O.2     1  UNL1       -0.3490
     16 C         139.2877  140.1413  167.2182 C.ar    1  UNL1        0.2117
     17 H         139.5873  141.3437  163.0987 H       1  UNL1        0.1438
     18 H         138.6771  139.9661  162.6729 H       1  UNL1        0.1438
     19 C         140.3548  139.9923  170.9820 C.3     1  UNL1        0.2526
     20 O         139.4313  139.9162  169.8025 O.3     1  UNL1       -0.4683
     21 N         141.7318  145.1375  160.9880 N.am    1  UNL1       -0.2681
     22 C         140.8059  145.0654  159.8102 C.2     1  UNL1        0.3082
     23 O         139.5512  144.2473  159.8914 O.2     1  UNL1       -0.2522
     24 N         141.1346  145.8113  158.5510 N.am    1  UNL1       -0.2681
     25 H         142.5553  145.6744  160.9346 H       1  UNL1        0.1564
     26 H         141.9580  146.3483  158.4976 H       1  UNL1        0.1564
     27 C         140.2086  145.7392  157.3731 C.ar    1  UNL1        0.0515
     28 C         139.6232  146.9962  156.8011 C.ar    1  UNL1        0.0147
     29 C         138.6972  146.9241  155.6233 C.ar    1  UNL1        0.0012
     30 C         138.3566  145.5949  155.0174 C.ar    1  UNL1        0.0039
     31 C         138.9419  144.3378  155.5894 C.ar    1  UNL1        0.0727
     32 C         139.8679  144.4100  156.7672 C.ar    1  UNL1        0.0186
     33 C         138.6013  143.0086  154.9834 C.3     1  UNL1        0.4186
     34 F         138.2607  141.6793  154.3775 F       1  UNL1       -0.1659
     35 F         137.2008  143.4826  154.7310 F       1  UNL1       -0.1659
     36 F         140.0019  142.5346  155.2359 F       1  UNL1       -0.1659
@<TRIPOS>BOND
     1    19    20    1
     2    20     7    1
     3     7     8   ar
     4     8     9   ar
     5     9    10   ar
     6    10     1    1
     7     1     2   ar
     8     2     3   ar
     9     3     4   ar
    10     4    21    1
    11    21    22   am
    12    22    23    2
    13    22    24   am
    14    24    27    1
    15    27    28   ar
    16    28    29   ar
    17    29    30   ar
    18    30    31   ar
    19    31    33    1
    20    33    34    1
    21    33    35    1
    22    33    36    1
    23    31    32   ar
    24     4     5   ar
    25     5     6   ar
    26    10    11   ar
    27    11    12   ar
    28    12    13    1
    29    12    14   ar
    30    14    15   ar
    31    15    16   ar
    32    16     7   ar
    33     6     1   ar
    34    16    11   ar
    35    32    27   ar
    36    21    25    1
    37    24    26    1
    38    13    17    1
    39    13    18    1
@<TRIPOS>MOLECULE
*****
 36 39 0 0 0
SMALL
GASTEIGER

@<TRIPOS>ATOM
      1 C         139.8756  139.3835  164.5621 C.ar    1  UNL1        0.0003
      2 C         140.0915  140.5185  163.6055 C.ar    1  UNL1        0.0013
      3 C         139.7806  140.3411  162.1488 C.ar    1  UNL1        0.0147
      4 C         139.2539  139.0287  161.6488 C.ar    1  UNL1        0.0516
      5 C         139.0381  137.8936  162.6054 C.ar    1  UNL1        0.0147
      6 C         139.3490  138.0710  164.0621 C.ar    1  UNL1        0.0013
      7 C         140.8081  139.9160  168.9321 C.ar    1  UNL1        0.1757
      8 C         139.4537  140.2854  168.4037 C.ar    1  UNL1        0.0402
      9 C         139.1429  140.1079  166.9472 C.ar    1  UNL1        0.0034
     10 C         140.1865  139.5610  166.0188 C.ar    1  UNL1        0.0060
     11 C         141.5409  139.1916  166.5471 C.ar    1  UNL1        0.0746
     12 C         142.7615  138.6336  165.8773 C.ar    1  UNL1        0.1675
     13 N         142.8937  138.3012  164.4206 N.pl3   1  UNL1       -0.3400
     14 N         143.8267  138.4662  166.9201 N.ar    1  UNL1       -0.0622
     15 O         143.2644  138.9208  168.2343 O.2     1  UNL1       -0.3490
     16 C         141.8517  139.3691  168.0038 C.ar    1  UNL1        0.2117
     17 H         142.1341  138.4470  163.8115 H       1  UNL1        0.1438
     18 H         143.7402  137.9374  164.0736 H       1  UNL1        0.1438
     19 C         141.0335  141.4546  171.0134 C.3     1  UNL1        0.2526
     20 O         141.1189  140.0936  170.3888 O.3     1  UNL1       -0.4683
     21 N         138.9431  138.8513  160.1921 N.am    1  UNL1       -0.2681
     22 C         140.0522  138.6029  159.2133 C.2     1  UNL1        0.3082
     23 O         141.4723  138.5318  159.6912 O.2     1  UNL1       -0.2522
     24 N         139.7413  138.4255  157.7567 N.am    1  UNL1       -0.2681
     25 H         138.0111  138.8979  159.8785 H       1  UNL1        0.1564
     26 H         138.8093  138.4721  157.4430 H       1  UNL1        0.1564
     27 C         140.8505  138.1770  156.7779 C.ar    1  UNL1        0.0515
     28 C         141.2248  139.2361  155.7838 C.ar    1  UNL1        0.0147
     29 C         142.3340  138.9877  154.8050 C.ar    1  UNL1        0.0012
     30 C         143.0690  137.6802  154.8204 C.ar    1  UNL1        0.0039
     31 C         142.6947  136.6211  155.8145 C.ar    1  UNL1        0.0727
     32 C         141.5855  136.8695  156.7933 C.ar    1  UNL1        0.0186
     33 C         143.4297  135.3136  155.8298 C.3     1  UNL1        0.4186
     34 F         144.1648  134.0061  155.8452 F       1  UNL1       -0.1659
     35 F         142.2178  134.6390  156.4008 F       1  UNL1       -0.1659
     36 F         144.6417  135.9882  155.2589 F       1  UNL1       -0.1659
@<TRIPOS>BOND
     1    19    20    1
     2    20     7    1
     3     7     8   ar
     4     8     9   ar
     5     9    10   ar
     6    10     1    1
     7     1     2   ar
     8     2     3   ar
     9     3     4   ar
    10     4    21    1
    11    21    22   am
    12    22    23    2
    13    22    24   am
    14    24    27    1
    15    27    28   ar
    16    28    29   ar
    17    29    30   ar
    18    30    31   ar
    19    31    33    1
    20    33    34    1
    21    33    35    1
    22    33    36    1
    23    31    32   ar
    24     4     5   ar
    25     5     6   ar
    26    10    11   ar
    27    11    12   ar
    28    12    13    1
    29    12    14   ar
    30    14    15   ar
    31    15    16   ar
    32    16     7   ar
    33     6     1   ar
    34    16    11   ar
    35    32    27   ar
    36    21    25    1
    37    24    26    1
    38    13    17    1
    39    13    18    1
@<TRIPOS>MOLECULE
*****
 36 39 0 0 0
SMALL
GASTEIGER

@<TRIPOS>ATOM
      1 C         140.0818  143.2153  164.6201 C.ar    1  UNL1        0.0003
      2 C         141.3786  143.3232  163.8740 C.ar    1  UNL1        0.0013
      3 C         141.4739  144.1965  162.6581 C.ar    1  UNL1        0.0147
      4 C         140.2724  144.9618  162.1884 C.ar    1  UNL1        0.0516
      5 C         138.9756  144.8539  162.9345 C.ar    1  UNL1        0.0147
      6 C         138.8803  143.9806  164.1504 C.ar    1  UNL1        0.0013
      7 C         139.7961  140.5956  168.2679 C.ar    1  UNL1        0.1757
      8 C         140.3868  141.9702  168.3760 C.ar    1  UNL1        0.0402
      9 C         140.4820  142.8433  167.1602 C.ar    1  UNL1        0.0034
     10 C         139.9865  142.3420  165.8360 C.ar    1  UNL1        0.0060
     11 C         139.3958  140.9675  165.7279 C.ar    1  UNL1        0.0746
     12 C         138.8289  140.2073  164.5657 C.ar    1  UNL1        0.1675
     13 N         138.7256  140.7031  163.1538 N.pl3   1  UNL1       -0.3400
     14 N         138.3832  138.8643  165.0634 N.ar    1  UNL1       -0.0622
     15 O         138.6748  138.7944  166.5331 O.2     1  UNL1       -0.3490
     16 C         139.3006  140.0943  166.9438 C.ar    1  UNL1        0.2117
     17 H         139.0475  141.6047  162.9239 H       1  UNL1        0.1438
     18 H         138.3360  140.1270  162.4570 H       1  UNL1        0.1438
     19 C         140.3911  140.1261  170.7529 C.3     1  UNL1        0.2526
     20 O         139.7009  139.7224  169.4838 O.3     1  UNL1       -0.4683
     21 N         140.3678  145.8350  160.9725 N.am    1  UNL1       -0.2681
     22 C         140.4717  145.2155  159.6105 C.2     1  UNL1        0.3082
     23 O         140.4802  143.7226  159.4641 O.2     1  UNL1       -0.2522
     24 N         140.5670  146.0888  158.3946 N.am    1  UNL1       -0.2681
     25 H         140.3622  146.8148  161.0685 H       1  UNL1        0.1564
     26 H         140.5614  147.0686  158.4906 H       1  UNL1        0.1564
     27 C         140.6709  145.4692  157.0325 C.ar    1  UNL1        0.0515
     28 C         139.4489  144.9063  156.3693 C.ar    1  UNL1        0.0147
     29 C         139.5528  144.2867  155.0073 C.ar    1  UNL1        0.0012
     30 C         140.8787  144.2300  154.3082 C.ar    1  UNL1        0.0039
     31 C         142.1007  144.7929  154.9714 C.ar    1  UNL1        0.0727
     32 C         141.9969  145.4125  156.3335 C.ar    1  UNL1        0.0186
     33 C         143.4267  144.7362  154.2724 C.3     1  UNL1        0.4186
     34 F         144.7527  144.6794  153.5734 F       1  UNL1       -0.1659
     35 F         142.9888  145.8368  153.3523 F       1  UNL1       -0.1659
     36 F         143.8647  143.6354  155.1924 F       1  UNL1       -0.1659
@<TRIPOS>BOND
     1    19    20    1
     2    20     7    1
     3     7     8   ar
     4     8     9   ar
     5     9    10   ar
     6    10     1    1
     7     1     2   ar
     8     2     3   ar
     9     3     4   ar
    10     4    21    1
    11    21    22   am
    12    22    23    2
    13    22    24   am
    14    24    27    1
    15    27    28   ar
    16    28    29   ar
    17    29    30   ar
    18    30    31   ar
    19    31    33    1
    20    33    34    1
    21    33    35    1
    22    33    36    1
    23    31    32   ar
    24     4     5   ar
    25     5     6   ar
    26    10    11   ar
    27    11    12   ar
    28    12    13    1
    29    12    14   ar
    30    14    15   ar
    31    15    16   ar
    32    16     7   ar
    33     6     1   ar
    34    16    11   ar
    35    32    27   ar
    36    21    25    1
    37    24    26    1
    38    13    17    1
    39    13    18    1
@<TRIPOS>MOLECULE
*****
 36 39 0 0 0
SMALL
GASTEIGER

@<TRIPOS>ATOM
      1 C         141.9978  142.4559  164.5327 C.ar    1  UNL1        0.0003
      2 C         142.9965  143.5466  164.2817 C.ar    1  UNL1        0.0013
      3 C         143.2477  144.0262  162.8828 C.ar    1  UNL1        0.0147
      4 C         142.5004  143.4149  161.7349 C.ar    1  UNL1        0.0516
      5 C         141.5018  142.3241  161.9859 C.ar    1  UNL1        0.0147
      6 C         141.2505  141.8446  163.3848 C.ar    1  UNL1        0.0013
      7 C         141.2440  141.0176  168.7295 C.ar    1  UNL1        0.1757
      8 C         140.5758  142.2653  168.2329 C.ar    1  UNL1        0.0402
      9 C         140.8270  142.7447  166.8340 C.ar    1  UNL1        0.0034
     10 C         141.7466  141.9764  165.9316 C.ar    1  UNL1        0.0060
     11 C         142.4148  140.7287  166.4283 C.ar    1  UNL1        0.0746
     12 C         143.3643  139.7699  165.7732 C.ar    1  UNL1        0.1675
     13 N         143.8866  139.8662  164.3704 N.pl3   1  UNL1       -0.3400
     14 N         143.6999  138.6980  166.7673 N.ar    1  UNL1       -0.0622
     15 O         142.9578  138.9942  168.0368 O.2     1  UNL1       -0.3490
     16 C         142.1636  140.2493  167.8272 C.ar    1  UNL1        0.2117
     17 H         143.6066  140.6112  163.7909 H       1  UNL1        0.1438
     18 H         144.5094  139.1844  164.0291 H       1  UNL1        0.1438
     19 C         140.8357  141.5288  171.2439 C.3     1  UNL1        0.2526
     20 O         140.9927  140.5383  170.1285 O.3     1  UNL1       -0.4683
     21 N         142.7517  143.8944  160.3360 N.am    1  UNL1       -0.2681
     22 C         141.5970  144.2282  159.4388 C.2     1  UNL1        0.3082
     23 O         140.1908  144.0825  159.9404 O.2     1  UNL1       -0.2522
     24 N         141.8483  144.7077  158.0399 N.am    1  UNL1       -0.2681
     25 H         143.6746  143.9900  160.0068 H       1  UNL1        0.1564
     26 H         142.7712  144.8034  157.7106 H       1  UNL1        0.1564
     27 C         140.6935  145.0415  157.1427 C.ar    1  UNL1        0.0515
     28 C         139.8926  143.9421  156.5105 C.ar    1  UNL1        0.0147
     29 C         138.7378  144.2759  155.6132 C.ar    1  UNL1        0.0012
     30 C         138.3839  145.7092  155.3482 C.ar    1  UNL1        0.0039
     31 C         139.1848  146.8087  155.9803 C.ar    1  UNL1        0.0727
     32 C         140.3396  146.4749  156.8776 C.ar    1  UNL1        0.0186
     33 C         138.8308  148.2420  155.7153 C.3     1  UNL1        0.4186
     34 F         138.4769  149.6754  155.4501 F       1  UNL1       -0.1659
     35 F         138.4872  148.4251  157.1638 F       1  UNL1       -0.1659
     36 F         139.1745  148.0590  154.2667 F       1  UNL1       -0.1659
@<TRIPOS>BOND
     1    19    20    1
     2    20     7    1
     3     7     8   ar
     4     8     9   ar
     5     9    10   ar
     6    10     1    1
     7     1     2   ar
     8     2     3   ar
     9     3     4   ar
    10     4    21    1
    11    21    22   am
    12    22    23    2
    13    22    24   am
    14    24    27    1
    15    27    28   ar
    16    28    29   ar
    17    29    30   ar
    18    30    31   ar
    19    31    33    1
    20    33    34    1
    21    33    35    1
    22    33    36    1
    23    31    32   ar
    24     4     5   ar
    25     5     6   ar
    26    10    11   ar
    27    11    12   ar
    28    12    13    1
    29    12    14   ar
    30    14    15   ar
    31    15    16   ar
    32    16     7   ar
    33     6     1   ar
    34    16    11   ar
    35    32    27   ar
    36    21    25    1
    37    24    26    1
    38    13    17    1
    39    13    18    1
@<TRIPOS>MOLECULE
*****
 36 39 0 0 0
SMALL
GASTEIGER

@<TRIPOS>ATOM
      1 C         141.3582  141.3533  159.8452 C.ar    1  UNL1        0.0003
      2 C         141.3833  141.6955  158.3849 C.ar    1  UNL1        0.0013
      3 C         142.1785  140.8542  157.4310 C.ar    1  UNL1        0.0147
      4 C         142.9486  139.6709  157.9374 C.ar    1  UNL1        0.0516
      5 C         142.9236  139.3287  159.3977 C.ar    1  UNL1        0.0147
      6 C         142.1283  140.1700  160.3516 C.ar    1  UNL1        0.0013
      7 C         138.9722  143.8771  162.7067 C.ar    1  UNL1        0.1757
      8 C         138.3134  142.7443  161.9769 C.ar    1  UNL1        0.0402
      9 C         139.1086  141.9030  161.0232 C.ar    1  UNL1        0.0034
     10 C         140.5629  142.1946  160.7990 C.ar    1  UNL1        0.0060
     11 C         141.2218  143.3275  161.5288 C.ar    1  UNL1        0.0746
     12 C         142.6279  143.8496  161.5116 C.ar    1  UNL1        0.1675
     13 N         143.7613  143.3037  160.6947 N.pl3   1  UNL1       -0.3400
     14 N         142.7015  145.0136  162.4549 N.ar    1  UNL1       -0.0622
     15 O         141.3410  145.2108  163.0550 O.2     1  UNL1       -0.3490
     16 C         140.4265  144.1687  162.4826 C.ar    1  UNL1        0.2117
     17 H         143.6134  142.5322  160.1013 H       1  UNL1        0.1438
     18 H         144.6530  143.7169  160.7519 H       1  UNL1        0.1438
     19 C         138.5245  144.7299  165.1196 C.3     1  UNL1        0.2526
     20 O         138.1769  144.7183  163.6605 O.3     1  UNL1       -0.4683
     21 N         143.7439  138.8296  156.9835 N.am    1  UNL1       -0.2681
     22 C         143.2535  137.4655  156.5983 C.2     1  UNL1        0.3082
     23 O         141.9677  136.9424  157.1670 O.2     1  UNL1       -0.2522
     24 N         144.0487  136.6243  155.6444 N.am    1  UNL1       -0.2681
     25 H         144.5877  139.1729  156.6103 H       1  UNL1        0.1564
     26 H         144.8926  136.9675  155.2711 H       1  UNL1        0.1564
     27 C         143.5582  135.2601  155.2592 C.ar    1  UNL1        0.0515
     28 C         142.6333  135.0982  154.0895 C.ar    1  UNL1        0.0147
     29 C         142.1428  133.7340  153.7043 C.ar    1  UNL1        0.0012
     30 C         142.5773  132.5316  154.4888 C.ar    1  UNL1        0.0039
     31 C         143.5023  132.6935  155.6585 C.ar    1  UNL1        0.0727
     32 C         143.9927  134.0577  156.0437 C.ar    1  UNL1        0.0186
     33 C         143.9367  131.4911  156.4430 C.3     1  UNL1        0.4186
     34 F         144.3711  130.2886  157.2276 F       1  UNL1       -0.1659
     35 F         145.3719  131.8766  156.2392 F       1  UNL1       -0.1659
     36 F         142.5016  131.1054  156.6469 F       1  UNL1       -0.1659
@<TRIPOS>BOND
     1    19    20    1
     2    20     7    1
     3     7     8   ar
     4     8     9   ar
     5     9    10   ar
     6    10     1    1
     7     1     2   ar
     8     2     3   ar
     9     3     4   ar
    10     4    21    1
    11    21    22   am
    12    22    23    2
    13    22    24   am
    14    24    27    1
    15    27    28   ar
    16    28    29   ar
    17    29    30   ar
    18    30    31   ar
    19    31    33    1
    20    33    34    1
    21    33    35    1
    22    33    36    1
    23    31    32   ar
    24     4     5   ar
    25     5     6   ar
    26    10    11   ar
    27    11    12   ar
    28    12    13    1
    29    12    14   ar
    30    14    15   ar
    31    15    16   ar
    32    16     7   ar
    33     6     1   ar
    34    16    11   ar
    35    32    27   ar
    36    21    25    1
    37    24    26    1
    38    13    17    1
    39    13    18    1
@<TRIPOS>MOLECULE
*****
 36 39 0 0 0
SMALL
GASTEIGER

@<TRIPOS>ATOM
      1 C         142.4976  139.2479  164.8422 C.ar    1  UNL1        0.0003
      2 C         143.7343  139.5955  164.0677 C.ar    1  UNL1        0.0013
      3 C         143.9917  138.9521  162.7374 C.ar    1  UNL1        0.0147
      4 C         143.0124  137.9612  162.1816 C.ar    1  UNL1        0.0516
      5 C         141.7757  137.6136  162.9561 C.ar    1  UNL1        0.0147
      6 C         141.5183  138.2570  164.2864 C.ar    1  UNL1        0.0013
      7 C         141.7258  141.1780  168.8333 C.ar    1  UNL1        0.1757
      8 C         142.5251  139.9112  168.7549 C.ar    1  UNL1        0.0402
      9 C         142.7823  139.2679  167.4246 C.ar    1  UNL1        0.0034
     10 C         142.2403  139.8913  166.1726 C.ar    1  UNL1        0.0060
     11 C         141.4410  141.1582  166.2510 C.ar    1  UNL1        0.0746
     12 C         140.7840  141.9973  165.1955 C.ar    1  UNL1        0.1675
     13 N         140.7893  141.7227  163.7208 N.pl3   1  UNL1       -0.3400
     14 N         140.1206  143.1593  165.8735 N.ar    1  UNL1       -0.0622
     15 O         140.3677  143.0383  167.3481 O.2     1  UNL1       -0.3490
     16 C         141.1837  141.8015  167.5814 C.ar    1  UNL1        0.2117
     17 H         141.2549  140.9296  163.3695 H       1  UNL1        0.1438
     18 H         140.3272  142.3356  163.1043 H       1  UNL1        0.1438
     19 C         142.4631  142.7886  170.7340 C.3     1  UNL1        0.2526
     20 O         141.4685  141.8214  170.1637 O.3     1  UNL1       -0.4683
     21 N         143.2698  137.3178  160.8512 N.am    1  UNL1       -0.2681
     22 C         142.6616  137.8962  159.6081 C.2     1  UNL1        0.3082
     23 O         141.7958  139.1182  159.6953 O.2     1  UNL1       -0.2522
     24 N         142.9190  137.2529  158.2778 N.am    1  UNL1       -0.2681
     25 H         143.8379  136.5159  160.7940 H       1  UNL1        0.1564
     26 H         143.4871  136.4509  158.2205 H       1  UNL1        0.1564
     27 C         142.3107  137.8314  157.0347 C.ar    1  UNL1        0.0515
     28 C         143.1109  138.7600  156.1702 C.ar    1  UNL1        0.0147
     29 C         142.5026  139.3385  154.9271 C.ar    1  UNL1        0.0012
     30 C         141.0941  138.9884  154.5484 C.ar    1  UNL1        0.0039
     31 C         140.2939  138.0597  155.4128 C.ar    1  UNL1        0.0727
     32 C         140.9021  137.4812  156.6559 C.ar    1  UNL1        0.0186
     33 C         138.8853  137.7096  155.0341 C.3     1  UNL1        0.4186
     34 F         137.4767  137.3595  154.6554 F       1  UNL1       -0.1659
     35 F         139.3698  136.4338  154.4118 F       1  UNL1       -0.1659
     36 F         138.4008  138.9855  155.6565 F       1  UNL1       -0.1659
@<TRIPOS>BOND
     1    19    20    1
     2    20     7    1
     3     7     8   ar
     4     8     9   ar
     5     9    10   ar
     6    10     1    1
     7     1     2   ar
     8     2     3   ar
     9     3     4   ar
    10     4    21    1
    11    21    22   am
    12    22    23    2
    13    22    24   am
    14    24    27    1
    15    27    28   ar
    16    28    29   ar
    17    29    30   ar
    18    30    31   ar
    19    31    33    1
    20    33    34    1
    21    33    35    1
    22    33    36    1
    23    31    32   ar
    24     4     5   ar
    25     5     6   ar
    26    10    11   ar
    27    11    12   ar
    28    12    13    1
    29    12    14   ar
    30    14    15   ar
    31    15    16   ar
    32    16     7   ar
    33     6     1   ar
    34    16    11   ar
    35    32    27   ar
    36    21    25    1
    37    24    26    1
    38    13    17    1
    39    13    18    1
