@<TRIPOS>MOLECULE
*****
 22 24 0 0 0
SMALL
GASTEIGER

@<TRIPOS>ATOM
      1 C         141.2525  143.8766  163.8080 C.ar    1  UNL1       -0.0207
      2 C         140.6687  143.0941  162.6693 C.ar    1  UNL1       -0.0027
      3 C         139.9538  141.8026  162.9355 C.ar    1  UNL1        0.0188
      4 C         139.8228  141.2936  164.3404 C.ar    1  UNL1        0.0809
      5 N         139.1079  140.0020  164.6066 N.ar    1  UNL1       -0.2497
      6 C         138.9769  139.4930  166.0115 C.ar    1  UNL1        0.0582
      7 C         139.5608  140.2756  167.1502 C.ar    1  UNL1        0.0147
      8 C         140.2757  141.5671  166.8840 C.ar    1  UNL1        0.0027
      9 C         140.4067  142.0761  165.4791 C.ar    1  UNL1        0.0174
     10 C         141.1215  143.3676  165.2129 C.ar    1  UNL1       -0.0027
     11 C         138.2620  138.2015  166.2777 C.3     1  UNL1        0.0355
     12 C         137.6348  138.8009  167.5013 C.3     1  UNL1        0.0059
     13 C         138.8892  137.6021  165.0540 C.3     1  UNL1        0.0059
     14 C         137.5471  136.9099  166.5439 C.3     1  UNL1        0.0059
     15 C         141.9675  145.1682  163.5419 C.3     1  UNL1        0.0437
     16 C         143.4399  145.1653  163.2556 C.3     1  UNL1        0.0768
     17 C         144.7148  143.5890  165.8128 C.3     1  UNL1        0.0173
     18 C         144.7778  143.1437  164.3819 C.3     1  UNL1        0.0576
     19 C         145.4379  141.8958  163.8751 C.3     1  UNL1        0.0174
     20 C         145.2598  141.8490  162.3863 C.3     1  UNL1        0.0187
     21 C         144.4896  143.0681  161.9731 C.3     1  UNL1        0.0721
     22 N         144.1918  143.8682  163.2064 N.3     1  UNL1       -0.2737
@<TRIPOS>BOND
     1    18    17    1
     2    18    19    1
     3    19    20    1
     4    20    21    1
     5    21    22    1
     6    22    16    1
     7    16    15    1
     8    15     1    1
     9     1     2   ar
    10     2     3   ar
    11     3     4   ar
    12     4     5   ar
    13     5     6   ar
    14     6    11    1
    15    11    12    1
    16    11    13    1
    17    11    14    1
    18     6     7   ar
    19     7     8   ar
    20     8     9   ar
    21     9    10   ar
    22    22    18    1
    23    10     1   ar
    24     9     4   ar
@<TRIPOS>MOLECULE
*****
 22 24 0 0 0
SMALL
GASTEIGER

@<TRIPOS>ATOM
      1 C         143.4601  139.5644  164.3537 C.ar    1  UNL1       -0.0207
      2 C         143.6916  138.7183  165.5704 C.ar    1  UNL1       -0.0027
      3 C         143.0614  139.0967  166.8779 C.ar    1  UNL1        0.0188
      4 C         142.1998  140.3212  166.9687 C.ar    1  UNL1        0.0809
      5 N         141.5696  140.6996  168.2763 N.ar    1  UNL1       -0.2497
      6 C         140.7080  141.9241  168.3671 C.ar    1  UNL1        0.0582
      7 C         140.4766  142.7702  167.1503 C.ar    1  UNL1        0.0147
      8 C         141.1067  142.3918  165.8428 C.ar    1  UNL1        0.0027
      9 C         141.9683  141.1673  165.7520 C.ar    1  UNL1        0.0174
     10 C         142.5985  140.7889  164.4445 C.ar    1  UNL1       -0.0027
     11 C         140.0778  142.3025  169.6747 C.3     1  UNL1        0.0355
     12 C         140.6558  143.6814  169.5542 C.3     1  UNL1        0.0059
     13 C         139.4998  140.9236  169.7951 C.3     1  UNL1        0.0059
     14 C         139.4476  142.6810  170.9822 C.3     1  UNL1        0.0059
     15 C         144.0903  139.1861  163.0461 C.3     1  UNL1        0.0437
     16 C         143.4758  138.1099  162.2010 C.3     1  UNL1        0.0768
     17 C         140.9921  136.9619  163.9793 C.3     1  UNL1        0.0173
     18 C         140.8811  137.6535  162.6529 C.3     1  UNL1        0.0576
     19 C         139.6090  137.9388  161.9111 C.3     1  UNL1        0.0174
     20 C         139.9644  138.6429  160.6351 C.3     1  UNL1        0.0187
     21 C         141.4563  138.7927  160.5884 C.3     1  UNL1        0.0721
     22 N         142.0227  138.1812  161.8355 N.3     1  UNL1       -0.2737
@<TRIPOS>BOND
     1    18    17    1
     2    18    19    1
     3    19    20    1
     4    20    21    1
     5    21    22    1
     6    22    16    1
     7    16    15    1
     8    15     1    1
     9     1     2   ar
    10     2     3   ar
    11     3     4   ar
    12     4     5   ar
    13     5     6   ar
    14     6    11    1
    15    11    12    1
    16    11    13    1
    17    11    14    1
    18     6     7   ar
    19     7     8   ar
    20     8     9   ar
    21     9    10   ar
    22    22    18    1
    23    10     1   ar
    24     9     4   ar
@<TRIPOS>MOLECULE
*****
 22 24 0 0 0
SMALL
GASTEIGER

@<TRIPOS>ATOM
      1 C         138.7582  139.9919  163.7818 C.ar    1  UNL1       -0.0207
      2 C         139.6381  141.1398  163.3844 C.ar    1  UNL1       -0.0027
      3 C         140.4190  141.8823  164.4278 C.ar    1  UNL1        0.0188
      4 C         140.3201  141.4769  165.8686 C.ar    1  UNL1        0.0809
      5 N         141.1011  142.2195  166.9120 N.ar    1  UNL1       -0.2497
      6 C         141.0022  141.8141  168.3528 C.ar    1  UNL1        0.0582
      7 C         140.1222  140.6661  168.7501 C.ar    1  UNL1        0.0147
      8 C         139.3413  139.9236  167.7068 C.ar    1  UNL1        0.0027
      9 C         139.4402  140.3290  166.2660 C.ar    1  UNL1        0.0174
     10 C         138.6592  139.5864  165.2226 C.ar    1  UNL1       -0.0027
     11 C         141.7831  142.5566  169.3962 C.3     1  UNL1        0.0355
     12 C         142.9794  141.6975  169.1122 C.3     1  UNL1        0.0059
     13 C         140.5869  143.4158  169.6801 C.3     1  UNL1        0.0059
     14 C         142.5642  143.2992  170.4396 C.3     1  UNL1        0.0059
     15 C         137.9772  139.2493  162.7384 C.3     1  UNL1        0.0437
     16 C         138.5865  138.0665  162.0458 C.3     1  UNL1        0.0768
     17 C         141.1018  137.0774  163.8745 C.3     1  UNL1        0.0173
     18 C         141.1882  137.6395  162.4866 C.3     1  UNL1        0.0576
     19 C         142.4458  137.8457  161.6955 C.3     1  UNL1        0.0174
     20 C         142.0669  138.4278  160.3659 C.3     1  UNL1        0.0187
     21 C         140.5750  138.5814  160.3353 C.3     1  UNL1        0.0721
     22 N         140.0321  138.0942  161.6460 N.3     1  UNL1       -0.2737
@<TRIPOS>BOND
     1    18    17    1
     2    18    19    1
     3    19    20    1
     4    20    21    1
     5    21    22    1
     6    22    16    1
     7    16    15    1
     8    15     1    1
     9     1     2   ar
    10     2     3   ar
    11     3     4   ar
    12     4     5   ar
    13     5     6   ar
    14     6    11    1
    15    11    12    1
    16    11    13    1
    17    11    14    1
    18     6     7   ar
    19     7     8   ar
    20     8     9   ar
    21     9    10   ar
    22    22    18    1
    23    10     1   ar
    24     9     4   ar
@<TRIPOS>MOLECULE
*****
 22 24 0 0 0
SMALL
GASTEIGER

@<TRIPOS>ATOM
      1 C         139.2451  138.7851  164.0786 C.ar    1  UNL1       -0.0207
      2 C         138.4681  138.5541  165.3407 C.ar    1  UNL1       -0.0027
      3 C         138.8469  139.2792  166.5979 C.ar    1  UNL1        0.0188
      4 C         140.0026  140.2354  166.5930 C.ar    1  UNL1        0.0809
      5 N         140.3814  140.9606  167.8503 N.ar    1  UNL1       -0.2497
      6 C         141.5371  141.9168  167.8455 C.ar    1  UNL1        0.0582
      7 C         142.3141  142.1478  166.5833 C.ar    1  UNL1        0.0147
      8 C         141.9353  141.4226  165.3261 C.ar    1  UNL1        0.0027
      9 C         140.7796  140.4664  165.3310 C.ar    1  UNL1        0.0174
     10 C         140.4008  139.7412  164.0738 C.ar    1  UNL1       -0.0027
     11 C         141.9159  142.6419  169.1027 C.3     1  UNL1        0.0355
     12 C         140.4965  143.0983  169.2670 C.3     1  UNL1        0.0059
     13 C         143.3352  142.1856  168.9383 C.3     1  UNL1        0.0059
     14 C         142.2946  143.3672  170.3600 C.3     1  UNL1        0.0059
     15 C         138.8664  138.0599  162.8213 C.3     1  UNL1        0.0437
     16 C         137.8261  138.6364  161.9074 C.3     1  UNL1        0.0768
     17 C         137.3363  141.5983  163.1867 C.3     1  UNL1        0.0173
     18 C         137.8496  141.3075  161.8076 C.3     1  UNL1        0.0576
     19 C         138.2279  142.3270  160.7744 C.3     1  UNL1        0.0174
     20 C         138.6868  141.5957  159.5478 C.3     1  UNL1        0.0187
     21 C         138.5921  140.1241  159.8229 C.3     1  UNL1        0.0721
     22 N         138.0747  139.9461  161.2196 N.3     1  UNL1       -0.2737
@<TRIPOS>BOND
     1    18    17    1
     2    18    19    1
     3    19    20    1
     4    20    21    1
     5    21    22    1
     6    22    16    1
     7    16    15    1
     8    15     1    1
     9     1     2   ar
    10     2     3   ar
    11     3     4   ar
    12     4     5   ar
    13     5     6   ar
    14     6    11    1
    15    11    12    1
    16    11    13    1
    17    11    14    1
    18     6     7   ar
    19     7     8   ar
    20     8     9   ar
    21     9    10   ar
    22    22    18    1
    23    10     1   ar
    24     9     4   ar
@<TRIPOS>MOLECULE
*****
 22 24 0 0 0
SMALL
GASTEIGER

@<TRIPOS>ATOM
      1 C         143.4438  139.4364  163.1171 C.ar    1  UNL1       -0.0207
      2 C         143.1749  140.8917  162.8726 C.ar    1  UNL1       -0.0027
      3 C         142.8505  141.7980  164.0229 C.ar    1  UNL1        0.0188
      4 C         142.7949  141.2491  165.4177 C.ar    1  UNL1        0.0809
      5 N         142.4704  142.1555  166.5681 N.ar    1  UNL1       -0.2497
      6 C         142.4149  141.6065  167.9629 C.ar    1  UNL1        0.0582
      7 C         142.6838  140.1511  168.2074 C.ar    1  UNL1        0.0147
      8 C         143.0082  139.2448  167.0571 C.ar    1  UNL1        0.0027
      9 C         143.0638  139.7938  165.6622 C.ar    1  UNL1        0.0174
     10 C         143.3882  138.8875  164.5119 C.ar    1  UNL1       -0.0027
     11 C         142.0904  142.5128  169.1132 C.3     1  UNL1        0.0355
     12 C         143.4864  142.3481  169.6367 C.3     1  UNL1        0.0059
     13 C         140.6944  142.6775  168.5897 C.3     1  UNL1        0.0059
     14 C         141.7660  143.4192  170.2636 C.3     1  UNL1        0.0059
     15 C         143.7683  138.5300  161.9667 C.3     1  UNL1        0.0437
     16 C         142.7628  137.5186  161.5021 C.3     1  UNL1        0.0768
     17 C         140.9285  136.7766  164.0972 C.3     1  UNL1        0.0173
     18 C         140.4530  137.4538  162.8460 C.3     1  UNL1        0.0576
     19 C         139.0510  137.9088  162.5680 C.3     1  UNL1        0.0174
     20 C         139.0276  138.5311  161.2034 C.3     1  UNL1        0.0187
     21 C         140.4153  138.4606  160.6380 C.3     1  UNL1        0.0721
     22 N         141.2962  137.7948  161.6532 N.3     1  UNL1       -0.2737
@<TRIPOS>BOND
     1    18    17    1
     2    18    19    1
     3    19    20    1
     4    20    21    1
     5    21    22    1
     6    22    16    1
     7    16    15    1
     8    15     1    1
     9     1     2   ar
    10     2     3   ar
    11     3     4   ar
    12     4     5   ar
    13     5     6   ar
    14     6    11    1
    15    11    12    1
    16    11    13    1
    17    11    14    1
    18     6     7   ar
    19     7     8   ar
    20     8     9   ar
    21     9    10   ar
    22    22    18    1
    23    10     1   ar
    24     9     4   ar
@<TRIPOS>MOLECULE
*****
 22 24 0 0 0
SMALL
GASTEIGER

@<TRIPOS>ATOM
      1 C         139.4024  138.1116  163.5878 C.ar    1  UNL1       -0.0207
      2 C         140.8862  137.9517  163.4372 C.ar    1  UNL1       -0.0027
      3 C         141.8039  138.3954  164.5376 C.ar    1  UNL1        0.0188
      4 C         141.2378  138.9991  165.7886 C.ar    1  UNL1        0.0809
      5 N         142.1556  139.4428  166.8890 N.ar    1  UNL1       -0.2497
      6 C         141.5895  140.0465  168.1401 C.ar    1  UNL1        0.0582
      7 C         140.1056  140.2065  168.2907 C.ar    1  UNL1        0.0147
      8 C         139.1879  139.7628  167.1903 C.ar    1  UNL1        0.0027
      9 C         139.7540  139.1591  165.9392 C.ar    1  UNL1        0.0174
     10 C         138.8363  138.7153  164.8389 C.ar    1  UNL1       -0.0027
     11 C         142.5072  140.4903  169.2404 C.3     1  UNL1        0.0355
     12 C         142.7011  141.8066  168.5479 C.3     1  UNL1        0.0059
     13 C         142.3132  139.1740  169.9330 C.3     1  UNL1        0.0059
     14 C         143.4249  140.9341  170.3409 C.3     1  UNL1        0.0059
     15 C         138.4846  137.6679  162.4874 C.3     1  UNL1        0.0437
     16 C         137.7455  138.6861  161.6709 C.3     1  UNL1        0.0768
     17 C         140.3238  139.9863  160.1506 C.3     1  UNL1        0.0173
     18 C         139.3457  140.7246  161.0154 C.3     1  UNL1        0.0576
     19 C         139.3808  142.1901  161.3333 C.3     1  UNL1        0.0174
     20 C         138.2174  142.4983  162.2286 C.3     1  UNL1        0.0187
     21 C         137.4632  141.2231  162.4640 C.3     1  UNL1        0.0721
     22 N         138.1605  140.1270  161.7142 N.3     1  UNL1       -0.2737
@<TRIPOS>BOND
     1    18    17    1
     2    18    19    1
     3    19    20    1
     4    20    21    1
     5    21    22    1
     6    22    16    1
     7    16    15    1
     8    15     1    1
     9     1     2   ar
    10     2     3   ar
    11     3     4   ar
    12     4     5   ar
    13     5     6   ar
    14     6    11    1
    15    11    12    1
    16    11    13    1
    17    11    14    1
    18     6     7   ar
    19     7     8   ar
    20     8     9   ar
    21     9    10   ar
    22    22    18    1
    23    10     1   ar
    24     9     4   ar
@<TRIPOS>MOLECULE
*****
 22 24 0 0 0
SMALL
GASTEIGER

@<TRIPOS>ATOM
      1 C         142.6902  143.4346  164.7222 C.ar    1  UNL1       -0.0207
      2 C         143.4624  142.3004  165.3282 C.ar    1  UNL1       -0.0027
      3 C         142.7537  141.0411  165.7305 C.ar    1  UNL1        0.0188
      4 C         141.2729  140.9160  165.5268 C.ar    1  UNL1        0.0809
      5 N         140.5642  139.6566  165.9292 N.ar    1  UNL1       -0.2497
      6 C         139.0833  139.5316  165.7256 C.ar    1  UNL1        0.0582
      7 C         138.3112  140.6659  165.1196 C.ar    1  UNL1        0.0147
      8 C         139.0198  141.9252  164.7173 C.ar    1  UNL1        0.0027
      9 C         140.5007  142.0503  164.9209 C.ar    1  UNL1        0.0174
     10 C         141.2094  143.3096  164.5186 C.ar    1  UNL1       -0.0027
     11 C         138.3746  138.2723  166.1279 C.3     1  UNL1        0.0355
     12 C         138.9307  137.5743  164.9223 C.3     1  UNL1        0.0059
     13 C         137.8186  138.9704  167.3335 C.3     1  UNL1        0.0059
     14 C         137.6659  137.0129  166.5301 C.3     1  UNL1        0.0059
     15 C         143.3989  144.6940  164.3199 C.3     1  UNL1        0.0437
     16 C         143.8855  144.8635  162.9112 C.3     1  UNL1        0.0768
     17 C         144.9956  141.9948  161.8216 C.3     1  UNL1        0.0173
     18 C         143.7934  142.7284  161.3055 C.3     1  UNL1        0.0576
     19 C         142.8905  142.2724  160.1979 C.3     1  UNL1        0.0174
     20 C         141.8221  143.3092  160.0142 C.3     1  UNL1        0.0187
     21 C         142.0648  144.4060  161.0083 C.3     1  UNL1        0.0721
     22 N         143.2832  144.0470  161.8063 N.3     1  UNL1       -0.2737
@<TRIPOS>BOND
     1    18    17    1
     2    18    19    1
     3    19    20    1
     4    20    21    1
     5    21    22    1
     6    22    16    1
     7    16    15    1
     8    15     1    1
     9     1     2   ar
    10     2     3   ar
    11     3     4   ar
    12     4     5   ar
    13     5     6   ar
    14     6    11    1
    15    11    12    1
    16    11    13    1
    17    11    14    1
    18     6     7   ar
    19     7     8   ar
    20     8     9   ar
    21     9    10   ar
    22    22    18    1
    23    10     1   ar
    24     9     4   ar
@<TRIPOS>MOLECULE
*****
 22 24 0 0 0
SMALL
GASTEIGER

@<TRIPOS>ATOM
      1 C         142.0559  139.3067  167.3328 C.ar    1  UNL1       -0.0207
      2 C         142.8043  138.7519  166.1572 C.ar    1  UNL1       -0.0027
      3 C         142.1624  138.7306  164.8017 C.ar    1  UNL1        0.0188
      4 C         140.7720  139.2641  164.6218 C.ar    1  UNL1        0.0809
      5 N         140.1301  139.2428  163.2662 N.ar    1  UNL1       -0.2497
      6 C         138.7397  139.7763  163.0863 C.ar    1  UNL1        0.0582
      7 C         137.9913  140.3310  164.2620 C.ar    1  UNL1        0.0147
      8 C         138.6333  140.3523  165.6175 C.ar    1  UNL1        0.0027
      9 C         140.0236  139.8188  165.7974 C.ar    1  UNL1        0.0174
     10 C         140.6656  139.8401  167.1529 C.ar    1  UNL1       -0.0027
     11 C         138.0978  139.7550  161.7309 C.3     1  UNL1        0.0355
     12 C         138.1045  138.2552  161.7512 C.3     1  UNL1        0.0059
     13 C         138.0911  141.2548  161.7105 C.3     1  UNL1        0.0059
     14 C         137.4558  139.7336  160.3753 C.3     1  UNL1        0.0059
     15 C         142.6979  139.3280  168.6884 C.3     1  UNL1        0.0437
     16 C         141.9038  139.7536  169.8876 C.3     1  UNL1        0.0768
     17 C         143.7987  142.4066  169.7444 C.3     1  UNL1        0.0173
     18 C         142.3129  142.3944  169.9496 C.3     1  UNL1        0.0576
     19 C         141.4371  143.5996  170.1249 C.3     1  UNL1        0.0174
     20 C         140.0249  143.1250  170.2991 C.3     1  UNL1        0.0187
     21 C         140.0278  141.6264  170.2314 C.3     1  UNL1        0.0721
     22 N         141.4419  141.1750  170.0154 N.3     1  UNL1       -0.2737
@<TRIPOS>BOND
     1    18    17    1
     2    18    19    1
     3    19    20    1
     4    20    21    1
     5    21    22    1
     6    22    16    1
     7    16    15    1
     8    15     1    1
     9     1     2   ar
    10     2     3   ar
    11     3     4   ar
    12     4     5   ar
    13     5     6   ar
    14     6    11    1
    15    11    12    1
    16    11    13    1
    17    11    14    1
    18     6     7   ar
    19     7     8   ar
    20     8     9   ar
    21     9    10   ar
    22    22    18    1
    23    10     1   ar
    24     9     4   ar
@<TRIPOS>MOLECULE
*****
 22 24 0 0 0
SMALL
GASTEIGER

@<TRIPOS>ATOM
      1 C         138.4051  142.8639  164.3387 C.ar    1  UNL1       -0.0207
      2 C         138.1428  141.3931  164.2051 C.ar    1  UNL1       -0.0027
      3 C         138.8057  140.4251  165.1397 C.ar    1  UNL1        0.0188
      4 C         139.7310  140.9279  166.2079 C.ar    1  UNL1        0.0809
      5 N         140.3939  139.9598  167.1425 N.ar    1  UNL1       -0.2497
      6 C         141.3192  140.4626  168.2107 C.ar    1  UNL1        0.0582
      7 C         141.5815  141.9335  168.3443 C.ar    1  UNL1        0.0147
      8 C         140.9186  142.9015  167.4097 C.ar    1  UNL1        0.0027
      9 C         139.9933  142.3987  166.3415 C.ar    1  UNL1        0.0174
     10 C         139.3304  143.3667  165.4069 C.ar    1  UNL1       -0.0027
     11 C         141.9822  139.4947  169.1453 C.3     1  UNL1        0.0355
     12 C         142.8807  139.0377  168.0345 C.3     1  UNL1        0.0059
     13 C         141.0836  139.9516  170.2560 C.3     1  UNL1        0.0059
     14 C         142.6452  138.5266  170.0798 C.3     1  UNL1        0.0059
     15 C         137.7422  143.8319  163.4041 C.3     1  UNL1        0.0437
     16 C         138.5630  144.8588  162.6818 C.3     1  UNL1        0.0768
     17 C         141.6711  145.3874  163.5241 C.3     1  UNL1        0.0173
     18 C         141.2008  144.6810  162.2873 C.3     1  UNL1        0.0576
     19 C         142.0765  144.0935  161.2205 C.3     1  UNL1        0.0174
     20 C         141.1890  143.4874  160.1739 C.3     1  UNL1        0.0187
     21 C         139.7648  143.7004  160.5940 C.3     1  UNL1        0.0721
     22 N         139.7721  144.4380  161.9001 N.3     1  UNL1       -0.2737
@<TRIPOS>BOND
     1    18    17    1
     2    18    19    1
     3    19    20    1
     4    20    21    1
     5    21    22    1
     6    22    16    1
     7    16    15    1
     8    15     1    1
     9     1     2   ar
    10     2     3   ar
    11     3     4   ar
    12     4     5   ar
    13     5     6   ar
    14     6    11    1
    15    11    12    1
    16    11    13    1
    17    11    14    1
    18     6     7   ar
    19     7     8   ar
    20     8     9   ar
    21     9    10   ar
    22    22    18    1
    23    10     1   ar
    24     9     4   ar
