@<TRIPOS>MOLECULE
*****
 25 27 0 0 0
SMALL
GASTEIGER

@<TRIPOS>ATOM
      1 C         143.6450  138.0589  166.4332 C.3     1  UNL1        0.0327
      2 C         142.9105  139.3667  166.4218 C.ar    1  UNL1       -0.0009
      3 C         142.5985  140.1921  165.2088 C.ar    1  UNL1        0.0728
      4 N         141.8542  141.4143  165.6587 N.ar    1  UNL1       -0.3109
      5 C         141.7062  141.3442  167.1498 C.ar    1  UNL1        0.1445
      6 N         141.0613  142.2691  168.1390 N.ar    1  UNL1       -0.2237
      7 C         141.0693  141.9286  169.5997 C.ar    1  UNL1        0.1366
      8 C         141.7222  140.6632  170.0713 C.ar    1  UNL1        0.0352
      9 C         142.3670  139.7382  169.0821 C.ar    1  UNL1        0.0619
     10 CL        143.0199  138.4728  169.5537 Cl      1  UNL1       -0.0821
     11 C         142.3590  140.0787  167.6214 C.ar    1  UNL1        0.0422
     12 C         140.4244  142.8536  170.5890 C.2     1  UNL1        0.2606
     13 N         140.0527  144.2481  170.1801 N.am    1  UNL1       -0.3241
     14 O         140.1512  142.3841  171.9872 O.2     1  UNL1       -0.2687
     15 H         140.2321  144.5563  169.2624 H       1  UNL1        0.1453
     16 H         139.6295  144.8552  170.8293 H       1  UNL1        0.1453
     17 C         141.3469  142.5135  164.7731 C.3     1  UNL1        0.1181
     18 C         142.3101  143.3251  163.9584 C.3     1  UNL1        0.0274
     19 C         139.8765  142.8012  164.7021 C.3     1  UNL1        0.1682
     20 F         139.7484  141.3090  164.6201 F       1  UNL1       -0.2366
     21 C         138.3792  142.7769  164.6140 C.3     1  UNL1        0.0530
     22 C         137.8894  144.1941  164.6563 C.3     1  UNL1        0.0715
     23 N         139.0839  145.0942  164.7706 N.3     1  UNL1       -0.2951
     24 C         140.3119  144.2334  164.7989 C.3     1  UNL1        0.1035
     25 H         139.0244  145.6408  165.6298 H       1  UNL1        0.1233
@<TRIPOS>BOND
     1     1     2    1
     2     2     3   ar
     3     3     4   ar
     4     4    17    1
     5    17    18    1
     6    17    19    1
     7    19    20    1
     8    19    21    1
     9    21    22    1
    10    22    23    1
    11    23    24    1
    12     4     5   ar
    13     5     6   ar
    14     6     7   ar
    15     7    12    1
    16    12    13   am
    17    12    14    2
    18     7     8   ar
    19     8     9   ar
    20     9    10    1
    21     9    11   ar
    22    11     2   ar
    23    24    19    1
    24    11     5   ar
    25    23    25    1
    26    13    15    1
    27    13    16    1
@<TRIPOS>MOLECULE
*****
 25 27 0 0 0
SMALL
GASTEIGER

@<TRIPOS>ATOM
      1 C         144.6420  143.7059  165.4589 C.3     1  UNL1        0.0327
      2 C         143.4479  142.8093  165.3165 C.ar    1  UNL1       -0.0009
      3 C         143.3338  141.4047  165.8305 C.ar    1  UNL1        0.0728
      4 N         141.9737  140.8872  165.4667 N.ar    1  UNL1       -0.3109
      5 C         141.2473  141.9719  164.7279 C.ar    1  UNL1        0.1445
      6 N         139.8739  142.0314  164.1278 N.ar    1  UNL1       -0.2237
      7 C         139.4117  143.2788  163.4348 C.ar    1  UNL1        0.1366
      8 C         140.3228  144.4667  163.3419 C.ar    1  UNL1        0.0352
      9 C         141.6962  144.4072  163.9421 C.ar    1  UNL1        0.0619
     10 CL        142.6074  145.5951  163.8493 Cl      1  UNL1       -0.0821
     11 C         142.1584  143.1598  164.6351 C.ar    1  UNL1        0.0422
     12 C         138.0382  143.3383  162.8346 C.2     1  UNL1        0.2606
     13 N         137.4001  144.6661  162.5521 N.am    1  UNL1       -0.3241
     14 O         137.3030  142.0701  162.5168 O.2     1  UNL1       -0.2687
     15 H         137.8827  145.4984  162.7607 H       1  UNL1        0.1453
     16 H         136.4987  144.7051  162.1582 H       1  UNL1        0.1453
     17 C         141.4346  139.5242  165.7857 C.3     1  UNL1        0.1181
     18 C         142.2214  138.3013  165.4173 C.3     1  UNL1        0.0274
     19 C         140.1088  139.3840  166.4730 C.3     1  UNL1        0.1682
     20 F         140.7149  140.3070  167.4882 F       1  UNL1       -0.2366
     21 C         138.9096  139.4368  167.3727 C.3     1  UNL1        0.0530
     22 C         137.8396  138.5757  166.7697 C.3     1  UNL1        0.0715
     23 N         138.3774  137.9907  165.4975 N.3     1  UNL1       -0.2951
     24 C         139.7798  138.4903  165.3141 C.3     1  UNL1        0.1035
     25 H         137.7995  138.2846  164.7100 H       1  UNL1        0.1233
@<TRIPOS>BOND
     1     1     2    1
     2     2     3   ar
     3     3     4   ar
     4     4    17    1
     5    17    18    1
     6    17    19    1
     7    19    20    1
     8    19    21    1
     9    21    22    1
    10    22    23    1
    11    23    24    1
    12     4     5   ar
    13     5     6   ar
    14     6     7   ar
    15     7    12    1
    16    12    13   am
    17    12    14    2
    18     7     8   ar
    19     8     9   ar
    20     9    10    1
    21     9    11   ar
    22    11     2   ar
    23    24    19    1
    24    11     5   ar
    25    23    25    1
    26    13    15    1
    27    13    16    1
@<TRIPOS>MOLECULE
*****
 25 27 0 0 0
SMALL
GASTEIGER

@<TRIPOS>ATOM
      1 C         143.5885  141.9396  164.8179 C.3     1  UNL1        0.0327
      2 C         142.3679  141.1672  165.2224 C.ar    1  UNL1       -0.0009
      3 C         141.4738  140.3874  164.3046 C.ar    1  UNL1        0.0728
      4 N         140.3805  139.7773  165.1307 N.ar    1  UNL1       -0.3109
      5 C         140.5989  140.1801  166.5590 C.ar    1  UNL1        0.1445
      6 N         139.8380  139.8756  167.8153 N.ar    1  UNL1       -0.2237
      7 C         140.3055  140.4301  169.1282 C.ar    1  UNL1        0.1366
      8 C         141.5338  141.2892  169.1849 C.ar    1  UNL1        0.0352
      9 C         142.2947  141.5936  167.9286 C.ar    1  UNL1        0.0619
     10 CL        143.5230  142.4527  167.9853 Cl      1  UNL1       -0.0821
     11 C         141.8272  141.0391  166.6157 C.ar    1  UNL1        0.0422
     12 C         139.5446  140.1256  170.3846 C.2     1  UNL1        0.2606
     13 N         140.2716  140.0051  171.6911 N.am    1  UNL1       -0.3241
     14 O         138.0568  139.9417  170.3344 O.2     1  UNL1       -0.2687
     15 H         141.2481  140.1258  171.7240 H       1  UNL1        0.1453
     16 H         139.7722  139.8052  172.5157 H       1  UNL1        0.1453
     17 C         139.2646  138.9157  164.6184 C.3     1  UNL1        0.1181
     18 C         138.8961  137.6556  165.3441 C.3     1  UNL1        0.0274
     19 C         138.5171  139.3140  163.3805 C.3     1  UNL1        0.1682
     20 F         138.2396  140.5751  164.1438 F       1  UNL1       -0.2366
     21 C         137.7115  139.9761  162.3021 C.3     1  UNL1        0.0530
     22 C         137.6474  139.0408  161.1311 C.3     1  UNL1        0.0715
     23 N         138.4133  137.8008  161.4857 N.3     1  UNL1       -0.2951
     24 C         138.9508  137.9697  162.8759 C.3     1  UNL1        0.1035
     25 H         139.1838  137.6705  160.8302 H       1  UNL1        0.1233
@<TRIPOS>BOND
     1     1     2    1
     2     2     3   ar
     3     3     4   ar
     4     4    17    1
     5    17    18    1
     6    17    19    1
     7    19    20    1
     8    19    21    1
     9    21    22    1
    10    22    23    1
    11    23    24    1
    12     4     5   ar
    13     5     6   ar
    14     6     7   ar
    15     7    12    1
    16    12    13   am
    17    12    14    2
    18     7     8   ar
    19     8     9   ar
    20     9    10    1
    21     9    11   ar
    22    11     2   ar
    23    24    19    1
    24    11     5   ar
    25    23    25    1
    26    13    15    1
    27    13    16    1
@<TRIPOS>MOLECULE
*****
 25 27 0 0 0
SMALL
GASTEIGER

@<TRIPOS>ATOM
      1 C         137.7230  138.6816  166.9715 C.3     1  UNL1        0.0327
      2 C         139.0545  139.3242  166.7183 C.ar    1  UNL1       -0.0009
      3 C         139.8090  139.3082  165.4220 C.ar    1  UNL1        0.0728
      4 N         141.0861  140.0698  165.6197 N.ar    1  UNL1       -0.3109
      5 C         141.1208  140.5565  167.0381 C.ar    1  UNL1        0.1445
      6 N         142.1335  141.3597  167.7991 N.ar    1  UNL1       -0.2237
      7 C         141.8907  141.7021  169.2391 C.ar    1  UNL1        0.1366
      8 C         140.6351  141.2413  169.9181 C.ar    1  UNL1        0.0352
      9 C         139.6223  140.4381  169.1571 C.ar    1  UNL1        0.0619
     10 CL        138.3667  139.9773  169.8362 Cl      1  UNL1       -0.0821
     11 C         139.8652  140.0957  167.7171 C.ar    1  UNL1        0.0422
     12 C         142.9034  142.5054  170.0002 C.2     1  UNL1        0.2606
     13 N         142.5982  142.9710  171.3930 N.am    1  UNL1       -0.3241
     14 O         144.2213  142.8430  169.3684 O.2     1  UNL1       -0.2687
     15 H         141.7332  142.7494  171.8077 H       1  UNL1        0.1453
     16 H         143.2629  143.4982  171.8926 H       1  UNL1        0.1453
     17 C         142.1429  140.3037  164.5812 C.3     1  UNL1        0.1181
     18 C         142.7534  139.1404  163.8571 C.3     1  UNL1        0.0274
     19 C         142.5893  141.7007  164.2667 C.3     1  UNL1        0.1682
     20 F         141.1321  141.9383  164.0020 F       1  UNL1       -0.2366
     21 C         142.7309  143.1476  163.8968 C.3     1  UNL1        0.0530
     22 C         144.1825  143.5120  163.9987 C.3     1  UNL1        0.0715
     23 N         144.9378  142.2905  164.4315 N.3     1  UNL1       -0.2951
     24 C         143.9532  141.1711  164.5971 C.3     1  UNL1        0.1035
     25 H         145.4091  142.4709  165.3179 H       1  UNL1        0.1233
@<TRIPOS>BOND
     1     1     2    1
     2     2     3   ar
     3     3     4   ar
     4     4    17    1
     5    17    18    1
     6    17    19    1
     7    19    20    1
     8    19    21    1
     9    21    22    1
    10    22    23    1
    11    23    24    1
    12     4     5   ar
    13     5     6   ar
    14     6     7   ar
    15     7    12    1
    16    12    13   am
    17    12    14    2
    18     7     8   ar
    19     8     9   ar
    20     9    10    1
    21     9    11   ar
    22    11     2   ar
    23    24    19    1
    24    11     5   ar
    25    23    25    1
    26    13    15    1
    27    13    16    1
@<TRIPOS>MOLECULE
*****
 25 27 0 0 0
SMALL
GASTEIGER

@<TRIPOS>ATOM
      1 C         144.6778  143.5140  165.3921 C.3     1  UNL1        0.0327
      2 C         143.2971  142.9824  165.6395 C.ar    1  UNL1       -0.0009
      3 C         142.8781  142.1197  166.7928 C.ar    1  UNL1        0.0728
      4 N         141.4151  141.8244  166.6432 N.ar    1  UNL1       -0.3109
      5 C         140.9299  142.5045  165.3973 C.ar    1  UNL1        0.1445
      6 N         139.5793  142.5646  164.7476 N.ar    1  UNL1       -0.2237
      7 C         139.3919  143.3404  163.4776 C.ar    1  UNL1        0.1366
      8 C         140.5550  144.0561  162.8573 C.ar    1  UNL1        0.0352
      9 C         141.9057  143.9960  163.5070 C.ar    1  UNL1        0.0619
     10 CL        143.0688  144.7117  162.8867 Cl      1  UNL1       -0.0821
     11 C         142.0931  143.2202  164.7770 C.ar    1  UNL1        0.0422
     12 C         138.0412  143.4005  162.8279 C.2     1  UNL1        0.2606
     13 N         137.4104  144.7286  162.5306 N.am    1  UNL1       -0.3241
     14 O         137.3214  142.1327  162.4754 O.2     1  UNL1       -0.2687
     15 H         137.8828  145.5608  162.7619 H       1  UNL1        0.1453
     16 H         136.5239  144.7681  162.1041 H       1  UNL1        0.1453
     17 C         140.5832  140.9946  167.5756 C.3     1  UNL1        0.1181
     18 C         139.7806  139.8447  167.0428 C.3     1  UNL1        0.0274
     19 C         140.5538  141.3145  169.0407 C.3     1  UNL1        0.1682
     20 F         140.0828  142.6609  168.5767 F       1  UNL1       -0.2366
     21 C         140.4259  141.9161  170.4089 C.3     1  UNL1        0.0530
     22 C         140.8241  140.8744  171.4122 C.3     1  UNL1        0.0715
     23 N         141.1980  139.6292  170.6641 N.3     1  UNL1       -0.2951
     24 C         141.0310  139.9012  169.1985 C.3     1  UNL1        0.1035
     25 H         140.5892  138.8606  170.9451 H       1  UNL1        0.1233
@<TRIPOS>BOND
     1     1     2    1
     2     2     3   ar
     3     3     4   ar
     4     4    17    1
     5    17    18    1
     6    17    19    1
     7    19    20    1
     8    19    21    1
     9    21    22    1
    10    22    23    1
    11    23    24    1
    12     4     5   ar
    13     5     6   ar
    14     6     7   ar
    15     7    12    1
    16    12    13   am
    17    12    14    2
    18     7     8   ar
    19     8     9   ar
    20     9    10    1
    21     9    11   ar
    22    11     2   ar
    23    24    19    1
    24    11     5   ar
    25    23    25    1
    26    13    15    1
    27    13    16    1
@<TRIPOS>MOLECULE
*****
 25 27 0 0 0
SMALL
GASTEIGER

@<TRIPOS>ATOM
      1 C         142.5489  139.1237  164.8467 C.3     1  UNL1        0.0327
      2 C         141.7759  140.3537  165.2205 C.ar    1  UNL1       -0.0009
      3 C         141.0841  141.2836  164.2683 C.ar    1  UNL1        0.0728
      4 N         140.4397  142.3742  165.0715 N.ar    1  UNL1       -0.3109
      5 C         140.7332  142.1184  166.5201 C.ar    1  UNL1        0.1445
      6 N         140.3551  142.8612  167.7672 N.ar    1  UNL1       -0.2237
      7 C         140.8029  142.3552  169.1064 C.ar    1  UNL1        0.1366
      8 C         141.6287  141.1064  169.1984 C.ar    1  UNL1        0.0352
      9 C         142.0068  140.3636  167.9514 C.ar    1  UNL1        0.0619
     10 CL        142.8326  139.1147  168.0434 Cl      1  UNL1       -0.0821
     11 C         141.5590  140.8696  166.6122 C.ar    1  UNL1        0.0422
     12 C         140.4248  143.0980  170.3536 C.2     1  UNL1        0.2606
     13 N         140.0641  144.5521  170.2802 N.am    1  UNL1       -0.3241
     14 O         140.4075  142.3867  171.6740 O.2     1  UNL1       -0.2687
     15 H         140.0755  145.0190  169.4135 H       1  UNL1        0.1453
     16 H         139.8160  145.0397  171.0987 H       1  UNL1        0.1453
     17 C         139.6419  143.5197  164.5225 C.3     1  UNL1        0.1181
     18 C         138.2323  143.7419  164.9853 C.3     1  UNL1        0.0274
     19 C         140.2533  144.4430  163.5109 C.3     1  UNL1        0.1682
     20 F         141.3110  144.6342  164.5573 F       1  UNL1       -0.2366
     21 C         141.0861  145.4063  162.7180 C.3     1  UNL1        0.0530
     22 C         140.4152  145.6174  161.3931 C.3     1  UNL1        0.0715
     23 N         139.1679  144.7846  161.3671 N.3     1  UNL1       -0.2951
     24 C         139.0679  144.0588  162.6760 C.3     1  UNL1        0.1035
     25 H         139.2163  144.1125  160.6014 H       1  UNL1        0.1233
@<TRIPOS>BOND
     1     1     2    1
     2     2     3   ar
     3     3     4   ar
     4     4    17    1
     5    17    18    1
     6    17    19    1
     7    19    20    1
     8    19    21    1
     9    21    22    1
    10    22    23    1
    11    23    24    1
    12     4     5   ar
    13     5     6   ar
    14     6     7   ar
    15     7    12    1
    16    12    13   am
    17    12    14    2
    18     7     8   ar
    19     8     9   ar
    20     9    10    1
    21     9    11   ar
    22    11     2   ar
    23    24    19    1
    24    11     5   ar
    25    23    25    1
    26    13    15    1
    27    13    16    1
@<TRIPOS>MOLECULE
*****
 25 27 0 0 0
SMALL
GASTEIGER

@<TRIPOS>ATOM
      1 C         137.3670  138.3613  167.3142 C.3     1  UNL1        0.0327
      2 C         138.6079  139.0757  166.8673 C.ar    1  UNL1       -0.0009
      3 C         139.2019  139.0339  165.4906 C.ar    1  UNL1        0.0728
      4 N         140.4339  139.8897  165.4912 N.ar    1  UNL1       -0.3109
      5 C         140.6012  140.4604  166.8683 C.ar    1  UNL1        0.1445
      6 N         141.6354  141.3731  167.4576 N.ar    1  UNL1       -0.2237
      7 C         141.5411  141.7827  168.8975 C.ar    1  UNL1        0.1366
      8 C         140.4126  141.2796  169.7480 C.ar    1  UNL1        0.0352
      9 C         139.3784  140.3669  169.1586 C.ar    1  UNL1        0.0619
     10 CL        138.2499  139.8638  170.0092 Cl      1  UNL1       -0.0821
     11 C         139.4727  139.9573  167.7188 C.ar    1  UNL1        0.0422
     12 C         142.5753  142.6955  169.4869 C.2     1  UNL1        0.2606
     13 N         142.2189  143.5881  170.6386 N.am    1  UNL1       -0.3241
     14 O         143.9658  142.7156  168.9247 O.2     1  UNL1       -0.2687
     15 H         141.3063  143.5748  171.0076 H       1  UNL1        0.1453
     16 H         142.8977  144.1871  171.0254 H       1  UNL1        0.1453
     17 C         141.3395  140.1323  164.3203 C.3     1  UNL1        0.1181
     18 C         140.7804  140.6795  163.0404 C.3     1  UNL1        0.0274
     19 C         142.8041  139.8276  164.4291 C.3     1  UNL1        0.1682
     20 F         142.3292  138.4835  164.8958 F       1  UNL1       -0.2366
     21 C         144.1696  139.2419  164.6355 C.3     1  UNL1        0.0530
     22 C         145.1821  140.2878  164.2736 C.3     1  UNL1        0.0715
     23 N         144.4425  141.5198  163.8435 N.3     1  UNL1       -0.2951
     24 C         142.9728  141.2354  163.9396 C.3     1  UNL1        0.1035
     25 H         144.6878  141.7526  162.8812 H       1  UNL1        0.1233
@<TRIPOS>BOND
     1     1     2    1
     2     2     3   ar
     3     3     4   ar
     4     4    17    1
     5    17    18    1
     6    17    19    1
     7    19    20    1
     8    19    21    1
     9    21    22    1
    10    22    23    1
    11    23    24    1
    12     4     5   ar
    13     5     6   ar
    14     6     7   ar
    15     7    12    1
    16    12    13   am
    17    12    14    2
    18     7     8   ar
    19     8     9   ar
    20     9    10    1
    21     9    11   ar
    22    11     2   ar
    23    24    19    1
    24    11     5   ar
    25    23    25    1
    26    13    15    1
    27    13    16    1
@<TRIPOS>MOLECULE
*****
 25 27 0 0 0
SMALL
GASTEIGER

@<TRIPOS>ATOM
      1 C         138.9647  144.6501  165.3472 C.3     1  UNL1        0.0327
      2 C         140.0818  143.6605  165.4985 C.ar    1  UNL1       -0.0009
      3 C         140.2159  142.6426  166.5921 C.ar    1  UNL1        0.0728
      4 N         141.4779  141.8681  166.3520 N.ar    1  UNL1       -0.3109
      5 C         142.1236  142.4072  165.1101 C.ar    1  UNL1        0.1445
      6 N         143.3858  142.0326  164.3915 N.ar    1  UNL1       -0.2237
      7 C         143.7852  142.7657  163.1453 C.ar    1  UNL1        0.1366
      8 C         142.9223  143.8735  162.6178 C.ar    1  UNL1        0.0352
      9 C         141.6601  144.2482  163.3364 C.ar    1  UNL1        0.0619
     10 CL        140.7972  145.3559  162.8088 Cl      1  UNL1       -0.0821
     11 C         141.2608  143.5150  164.5826 C.ar    1  UNL1        0.0422
     12 C         145.0474  142.3911  162.4266 C.2     1  UNL1        0.2606
     13 N         145.2292  142.7654  160.9855 N.am    1  UNL1       -0.3241
     14 O         146.1278  141.6423  163.1491 O.2     1  UNL1       -0.2687
     15 H         144.5201  143.2568  160.5113 H       1  UNL1        0.1453
     16 H         146.0576  142.5195  160.5138 H       1  UNL1        0.1453
     17 C         142.0021  140.7506  167.2043 C.3     1  UNL1        0.1181
     18 C         142.1786  139.3805  166.6194 C.3     1  UNL1        0.0274
     19 C         142.3498  141.0029  168.6414 C.3     1  UNL1        0.1682
     20 F         143.2443  142.0653  168.0747 F       1  UNL1       -0.2366
     21 C         142.8847  141.4775  169.9601 C.3     1  UNL1        0.0530
     22 C         142.2479  140.6555  171.0413 C.3     1  UNL1        0.0715
     23 N         141.3197  139.6730  170.3909 N.3     1  UNL1       -0.2951
     24 C         141.3826  139.8877  168.9077 C.3     1  UNL1        0.1035
     25 H         140.3671  139.8250  170.7225 H       1  UNL1        0.1233
@<TRIPOS>BOND
     1     1     2    1
     2     2     3   ar
     3     3     4   ar
     4     4    17    1
     5    17    18    1
     6    17    19    1
     7    19    20    1
     8    19    21    1
     9    21    22    1
    10    22    23    1
    11    23    24    1
    12     4     5   ar
    13     5     6   ar
    14     6     7   ar
    15     7    12    1
    16    12    13   am
    17    12    14    2
    18     7     8   ar
    19     8     9   ar
    20     9    10    1
    21     9    11   ar
    22    11     2   ar
    23    24    19    1
    24    11     5   ar
    25    23    25    1
    26    13    15    1
    27    13    16    1
@<TRIPOS>MOLECULE
*****
 25 27 0 0 0
SMALL
GASTEIGER

@<TRIPOS>ATOM
      1 C         138.8920  144.6552  165.2583 C.3     1  UNL1        0.0327
      2 C         139.4664  143.2840  165.4583 C.ar    1  UNL1       -0.0009
      3 C         140.3492  142.8548  166.5924 C.ar    1  UNL1        0.0728
      4 N         140.6872  141.4068  166.3943 N.ar    1  UNL1       -0.3109
      5 C         140.0132  140.9412  165.1377 C.ar    1  UNL1        0.1445
      6 N         139.9891  139.6107  164.4455 N.ar    1  UNL1       -0.2237
      7 C         139.2105  139.4404  163.1749 C.ar    1  UNL1        0.1366
      8 C         138.4559  140.6006  162.5964 C.ar    1  UNL1        0.0352
      9 C         138.4800  141.9311  163.2886 C.ar    1  UNL1        0.0619
     10 CL        137.7255  143.0913  162.7101 Cl      1  UNL1       -0.0821
     11 C         139.2587  142.1014  164.5592 C.ar    1  UNL1        0.0422
     12 C         139.1863  138.1098  162.4826 C.2     1  UNL1        0.2606
     13 N         137.9283  137.6318  161.8203 N.am    1  UNL1       -0.3241
     14 O         140.4202  137.2575  162.4528 O.2     1  UNL1       -0.2687
     15 H         137.1184  138.1912  161.8399 H       1  UNL1        0.1453
     16 H         137.9124  136.7585  161.3659 H       1  UNL1        0.1453
     17 C         141.5480  140.5712  167.2946 C.3     1  UNL1        0.1181
     18 C         142.7049  139.8040  166.7261 C.3     1  UNL1        0.0274
     19 C         141.2521  140.5026  168.7635 C.3     1  UNL1        0.1682
     20 F         139.9109  140.0072  168.3100 F       1  UNL1       -0.2366
     21 C         140.6757  140.3305  170.1377 C.3     1  UNL1        0.0530
     22 C         141.7227  140.7339  171.1333 C.3     1  UNL1        0.0715
     23 N         142.9461  141.1553  170.3745 N.3     1  UNL1       -0.2951
     24 C         142.6552  141.0124  168.9099 C.3     1  UNL1        0.1035
     25 H         143.7342  140.5606  170.6306 H       1  UNL1        0.1233
@<TRIPOS>BOND
     1     1     2    1
     2     2     3   ar
     3     3     4   ar
     4     4    17    1
     5    17    18    1
     6    17    19    1
     7    19    20    1
     8    19    21    1
     9    21    22    1
    10    22    23    1
    11    23    24    1
    12     4     5   ar
    13     5     6   ar
    14     6     7   ar
    15     7    12    1
    16    12    13   am
    17    12    14    2
    18     7     8   ar
    19     8     9   ar
    20     9    10    1
    21     9    11   ar
    22    11     2   ar
    23    24    19    1
    24    11     5   ar
    25    23    25    1
    26    13    15    1
    27    13    16    1
