@<TRIPOS>MOLECULE
*****
 39 43 0 0 0
SMALL
GASTEIGER

@<TRIPOS>ATOM
      1 C         143.1072  144.0650  162.4367 C.2     1  UNL1        0.2251
      2 O         144.4745  144.6812  162.4679 O.2     1  UNL1       -0.2749
      3 N         142.6119  143.2786  163.6140 N.am    1  UNL1       -0.2795
      4 C         141.2446  142.6624  163.5827 C.3     1  UNL1        0.0942
      5 C         140.7493  141.8760  164.7601 C.3     1  UNL1        0.0343
      6 C         141.6212  141.7057  165.9687 C.3     1  UNL1        0.0911
      7 C         142.9885  142.3218  165.9999 C.3     1  UNL1        0.0343
      8 C         143.4838  143.1082  164.8226 C.3     1  UNL1        0.0942
      9 C         140.4915  144.5761  158.8109 C.3     1  UNL1        0.0542
     10 C         140.2576  145.4192  160.0292 C.3     1  UNL1        0.0162
     11 C         141.1295  145.2488  161.2378 C.3     1  UNL1        0.0104
     12 C         142.2353  144.2354  161.2280 C.3     1  UNL1        0.0768
     13 C         142.4692  143.3922  160.0097 C.3     1  UNL1        0.0095
     14 C         143.0795  142.3662  159.1015 C.3     1  UNL1        0.0005
     15 C         143.5531  142.8655  160.9029 C.3     1  UNL1        0.0005
     16 C         141.5973  143.5626  158.8011 C.3     1  UNL1        0.0162
     17 N         139.6195  144.7464  157.6022 N.3     1  UNL1       -0.2962
     18 H         139.3244  143.8123  157.3180 H       1  UNL1        0.1235
     19 C         141.1386  144.7035  155.4949 C.3     1  UNL1        0.0220
     20 C         140.1601  145.4213  156.3765 C.3     1  UNL1        0.0768
     21 C         139.7222  146.8141  156.0325 C.ar    1  UNL1       -0.0080
     22 C         140.0860  147.4080  154.7040 C.ar    1  UNL1       -0.0030
     23 C         139.6480  148.8008  154.3599 C.ar    1  UNL1       -0.0003
     24 C         138.8463  149.5997  155.3443 C.ar    1  UNL1       -0.0000
     25 C         138.4825  149.0057  156.6728 C.ar    1  UNL1       -0.0003
     26 C         138.9204  147.6130  157.0169 C.ar    1  UNL1       -0.0030
     27 C         140.4108  140.9378  166.4104 C.2     1  UNL1        0.2286
     28 O         139.5791  141.4410  167.5528 O.2     1  UNL1       -0.2746
     29 N         140.0321  139.6666  165.7098 N.am    1  UNL1       -0.2793
     30 C         138.8556  138.7959  166.0379 C.3     1  UNL1        0.0935
     31 C         138.8598  137.6342  165.0891 C.3     1  UNL1        0.0233
     32 C         140.0389  137.7870  164.1745 C.3     1  UNL1        0.0233
     33 C         140.7633  139.0431  164.5581 C.3     1  UNL1        0.0935
     34 C         142.0728  141.2687  167.3307 C.ar    1  UNL1       -0.0145
     35 C         142.2071  139.8078  167.6434 C.ar    1  UNL1       -0.0038
     36 C         142.6587  139.3708  169.0054 C.ar    1  UNL1       -0.0003
     37 C         142.9759  140.3946  170.0547 C.ar    1  UNL1       -0.0000
     38 C         142.8416  141.8555  169.7420 C.ar    1  UNL1       -0.0003
     39 C         142.3900  142.2925  168.3800 C.ar    1  UNL1       -0.0038
@<TRIPOS>BOND
     1    20    19    1
     2    20    17    1
     3     9    17    1
     4     9    10    1
     5    10    11    1
     6    11    12    1
     7    12     1    1
     8     1     2    2
     9     1     3   am
    10     3     4    1
    11     4     5    1
    12     5     6    1
    13     6    27    1
    14    27    28    2
    15    27    29   am
    16    29    30    1
    17    30    31    1
    18    31    32    1
    19    32    33    1
    20     6    34    1
    21    34    35   ar
    22    35    36   ar
    23    36    37   ar
    24    37    38   ar
    25    38    39   ar
    26     6     7    1
    27     7     8    1
    28    12    13    1
    29    13    14    1
    30    13    15    1
    31    13    16    1
    32    20    21    1
    33    21    22   ar
    34    22    23   ar
    35    23    24   ar
    36    24    25   ar
    37    25    26   ar
    38    16     9    1
    39    26    21   ar
    40     8     3    1
    41    33    29    1
    42    39    34   ar
    43    17    18    1
@<TRIPOS>MOLECULE
*****
 39 43 0 0 0
SMALL
GASTEIGER

@<TRIPOS>ATOM
      1 C         138.9648  144.3028  162.3782 C.2     1  UNL1        0.2251
      2 O         137.6193  144.9597  162.4681 O.2     1  UNL1       -0.2749
      3 N         139.5708  143.6652  163.5932 N.am    1  UNL1       -0.2795
      4 C         140.9163  143.0082  163.5033 C.3     1  UNL1        0.0942
      5 C         141.5223  142.3706  164.7183 C.3     1  UNL1        0.0343
      6 C         140.7828  142.3900  166.0232 C.3     1  UNL1        0.0911
      7 C         139.4373  143.0470  166.1131 C.3     1  UNL1        0.0343
      8 C         138.8313  143.6846  164.8981 C.3     1  UNL1        0.0942
      9 C         141.1832  144.2447  158.4634 C.3     1  UNL1        0.0542
     10 C         141.4754  145.3128  159.4753 C.3     1  UNL1        0.0162
     11 C         140.7360  145.3321  160.7802 C.3     1  UNL1        0.0104
     12 C         139.7043  144.2834  161.0732 C.3     1  UNL1        0.0768
     13 C         139.4121  143.2154  160.0614 C.3     1  UNL1        0.0095
     14 C         138.7877  142.0084  159.4261 C.3     1  UNL1        0.0005
     15 C         138.4557  142.8155  161.1457 C.3     1  UNL1        0.0005
     16 C         140.1515  143.1960  158.7565 C.3     1  UNL1        0.0162
     17 N         141.9227  144.2254  157.1585 N.3     1  UNL1       -0.2962
     18 H         142.6035  144.9840  157.1945 H       1  UNL1        0.1235
     19 C         141.0197  143.2050  154.9463 C.3     1  UNL1        0.0220
     20 C         141.1721  144.3780  155.8688 C.3     1  UNL1        0.0768
     21 C         140.5739  145.7036  155.5015 C.ar    1  UNL1       -0.0080
     22 C         139.6009  146.3700  156.4284 C.ar    1  UNL1       -0.0030
     23 C         139.0027  147.6956  156.0611 C.ar    1  UNL1       -0.0003
     24 C         139.3776  148.3549  154.7669 C.ar    1  UNL1       -0.0000
     25 C         140.3507  147.6885  153.8400 C.ar    1  UNL1       -0.0003
     26 C         140.9488  146.3629  154.2073 C.ar    1  UNL1       -0.0030
     27 C         142.0208  141.6506  166.4363 C.2     1  UNL1        0.2286
     28 O         143.0665  142.3407  167.2610 O.2     1  UNL1       -0.2746
     29 N         142.2130  140.2210  166.0247 N.am    1  UNL1       -0.2793
     30 C         143.3927  139.3578  166.3610 C.3     1  UNL1        0.0935
     31 C         143.1681  138.0070  165.7488 C.3     1  UNL1        0.0233
     32 C         141.8496  138.0354  165.0341 C.3     1  UNL1        0.0233
     33 C         141.2593  139.4037  165.2047 C.3     1  UNL1        0.0935
     34 C         140.4733  142.1526  167.4716 C.ar    1  UNL1       -0.0145
     35 C         139.9749  140.8114  167.9220 C.ar    1  UNL1       -0.0038
     36 C         139.6654  140.5740  169.3703 C.ar    1  UNL1       -0.0003
     37 C         139.8541  141.6777  170.3683 C.ar    1  UNL1       -0.0000
     38 C         140.3525  143.0190  169.9179 C.ar    1  UNL1       -0.0003
     39 C         140.6620  143.2564  168.4696 C.ar    1  UNL1       -0.0038
@<TRIPOS>BOND
     1    20    19    1
     2    20    17    1
     3     9    17    1
     4     9    10    1
     5    10    11    1
     6    11    12    1
     7    12     1    1
     8     1     2    2
     9     1     3   am
    10     3     4    1
    11     4     5    1
    12     5     6    1
    13     6    27    1
    14    27    28    2
    15    27    29   am
    16    29    30    1
    17    30    31    1
    18    31    32    1
    19    32    33    1
    20     6    34    1
    21    34    35   ar
    22    35    36   ar
    23    36    37   ar
    24    37    38   ar
    25    38    39   ar
    26     6     7    1
    27     7     8    1
    28    12    13    1
    29    13    14    1
    30    13    15    1
    31    13    16    1
    32    20    21    1
    33    21    22   ar
    34    22    23   ar
    35    23    24   ar
    36    24    25   ar
    37    25    26   ar
    38    16     9    1
    39    26    21   ar
    40     8     3    1
    41    33    29    1
    42    39    34   ar
    43    17    18    1
@<TRIPOS>MOLECULE
*****
 39 43 0 0 0
SMALL
GASTEIGER

@<TRIPOS>ATOM
      1 C         142.1841  139.7257  157.3170 C.2     1  UNL1        0.2251
      2 O         141.2896  140.5396  156.4297 O.2     1  UNL1       -0.2749
      3 N         142.5931  140.2561  158.6591 N.am    1  UNL1       -0.2795
      4 C         143.4876  139.4422  159.5465 C.3     1  UNL1        0.0942
      5 C         143.8966  139.9727  160.8886 C.3     1  UNL1        0.0343
      6 C         143.4112  141.3172  161.3434 C.3     1  UNL1        0.0911
      7 C         142.5167  142.1311  160.4560 C.3     1  UNL1        0.0343
      8 C         142.1076  141.6006  159.1139 C.3     1  UNL1        0.0942
      9 C         143.6403  135.6923  155.9527 C.3     1  UNL1        0.0542
     10 C         142.4838  135.7901  156.9029 C.3     1  UNL1        0.0162
     11 C         141.9984  137.1345  157.3576 C.3     1  UNL1        0.0104
     12 C         142.6695  138.3812  156.8622 C.3     1  UNL1        0.0768
     13 C         143.8261  138.2834  155.9121 C.3     1  UNL1        0.0095
     14 C         144.9496  138.7032  155.0112 C.3     1  UNL1        0.0005
     15 C         143.7308  139.7737  156.0540 C.3     1  UNL1        0.0005
     16 C         144.3115  136.9390  155.4574 C.3     1  UNL1        0.0162
     17 N         144.1258  134.3478  155.4979 N.3     1  UNL1       -0.2962
     18 H         143.7038  134.1756  154.5854 H       1  UNL1        0.1235
     19 C         144.5962  132.9337  157.6261 C.3     1  UNL1        0.0220
     20 C         143.8592  133.1318  156.3347 C.3     1  UNL1        0.0768
     21 C         142.8558  132.1138  155.8800 C.ar    1  UNL1       -0.0080
     22 C         141.6020  132.5550  155.1848 C.ar    1  UNL1       -0.0030
     23 C         140.5986  131.5370  154.7301 C.ar    1  UNL1       -0.0003
     24 C         140.8488  130.0777  154.9707 C.ar    1  UNL1       -0.0000
     25 C         142.1026  129.6364  155.6660 C.ar    1  UNL1       -0.0003
     26 C         143.1061  130.6544  156.1207 C.ar    1  UNL1       -0.0030
     27 C         144.2366  140.9225  162.5320 C.2     1  UNL1        0.2286
     28 O         145.6218  141.4732  162.6993 O.2     1  UNL1       -0.2746
     29 N         143.6769  139.9772  163.5533 N.am    1  UNL1       -0.2793
     30 C         144.3804  139.4945  164.7870 C.3     1  UNL1        0.0935
     31 C         143.4538  138.5677  165.5164 C.3     1  UNL1        0.0233
     32 C         142.1774  138.4776  164.7336 C.3     1  UNL1        0.0233
     33 C         142.3153  139.3487  163.5204 C.3     1  UNL1        0.0935
     34 C         143.2124  142.5246  162.2109 C.ar    1  UNL1       -0.0145
     35 C         144.2196  143.6360  162.1916 C.ar    1  UNL1       -0.0038
     36 C         144.0208  144.8434  163.0592 C.ar    1  UNL1       -0.0003
     37 C         142.8149  144.9394  163.9460 C.ar    1  UNL1       -0.0000
     38 C         141.8077  143.8280  163.9653 C.ar    1  UNL1       -0.0003
     39 C         142.0065  142.6206  163.0977 C.ar    1  UNL1       -0.0038
@<TRIPOS>BOND
     1    20    19    1
     2    20    17    1
     3     9    17    1
     4     9    10    1
     5    10    11    1
     6    11    12    1
     7    12     1    1
     8     1     2    2
     9     1     3   am
    10     3     4    1
    11     4     5    1
    12     5     6    1
    13     6    27    1
    14    27    28    2
    15    27    29   am
    16    29    30    1
    17    30    31    1
    18    31    32    1
    19    32    33    1
    20     6    34    1
    21    34    35   ar
    22    35    36   ar
    23    36    37   ar
    24    37    38   ar
    25    38    39   ar
    26     6     7    1
    27     7     8    1
    28    12    13    1
    29    13    14    1
    30    13    15    1
    31    13    16    1
    32    20    21    1
    33    21    22   ar
    34    22    23   ar
    35    23    24   ar
    36    24    25   ar
    37    25    26   ar
    38    16     9    1
    39    26    21   ar
    40     8     3    1
    41    33    29    1
    42    39    34   ar
    43    17    18    1
@<TRIPOS>MOLECULE
*****
 39 43 0 0 0
SMALL
GASTEIGER

@<TRIPOS>ATOM
      1 C         144.6823  141.8354  163.3016 C.2     1  UNL1        0.2251
      2 O         146.1671  141.6815  163.1542 O.2     1  UNL1       -0.2749
      3 N         143.8528  142.2660  162.1284 N.am    1  UNL1       -0.2795
      4 C         142.3681  142.4199  162.2757 C.3     1  UNL1        0.0942
      5 C         141.5386  142.8506  161.1024 C.3     1  UNL1        0.0343
      6 C         142.1939  143.1273  159.7819 C.3     1  UNL1        0.0911
      7 C         143.6786  142.9734  159.6345 C.3     1  UNL1        0.0343
      8 C         144.5081  142.5428  160.8077 C.3     1  UNL1        0.0942
      9 C         142.7166  141.0053  167.2634 C.3     1  UNL1        0.0542
     10 C         143.1209  142.4046  166.9054 C.3     1  UNL1        0.0162
     11 C         143.7761  142.6813  165.5848 C.3     1  UNL1        0.0104
     12 C         144.0271  141.5586  164.6222 C.3     1  UNL1        0.0768
     13 C         143.6228  140.1593  164.9802 C.3     1  UNL1        0.0095
     14 C         143.4218  138.6772  164.8658 C.3     1  UNL1        0.0005
     15 C         144.2082  139.9212  163.6198 C.3     1  UNL1        0.0005
     16 C         142.9675  139.8826  166.3008 C.3     1  UNL1        0.0162
     17 N         142.0613  140.7285  168.5841 N.3     1  UNL1       -0.2962
     18 H         142.4159  139.8279  168.9058 H       1  UNL1        0.1235
     19 C         139.8977  140.7194  170.0225 C.3     1  UNL1        0.0220
     20 C         140.5658  140.6645  168.6805 C.3     1  UNL1        0.0768
     21 C         139.7383  140.5456  167.4351 C.ar    1  UNL1       -0.0080
     22 C         139.7122  141.6694  166.4419 C.ar    1  UNL1       -0.0030
     23 C         138.8847  141.5505  165.1964 C.ar    1  UNL1       -0.0003
     24 C         138.0834  140.3079  164.9442 C.ar    1  UNL1       -0.0000
     25 C         138.1095  139.1840  165.9374 C.ar    1  UNL1       -0.0003
     26 C         138.9369  139.3029  167.1829 C.ar    1  UNL1       -0.0030
     27 C         140.7642  143.4116  159.4279 C.2     1  UNL1        0.2286
     28 O         140.2257  144.8067  159.5452 O.2     1  UNL1       -0.2746
     29 N         139.8731  142.3008  158.9567 N.am    1  UNL1       -0.2793
     30 C         138.4300  142.4324  158.5692 C.3     1  UNL1        0.0935
     31 C         137.9336  141.0764  158.1633 C.3     1  UNL1        0.0233
     32 C         139.0699  140.1068  158.2999 C.3     1  UNL1        0.0233
     33 C         140.2685  140.8635  158.7903 C.3     1  UNL1        0.0935
     34 C         142.3527  143.5028  158.3383 C.ar    1  UNL1       -0.0145
     35 C         142.0911  144.9123  157.8969 C.ar    1  UNL1       -0.0038
     36 C         142.2499  145.2878  156.4533 C.ar    1  UNL1       -0.0003
     37 C         142.6702  144.2538  155.4513 C.ar    1  UNL1       -0.0000
     38 C         142.9318  142.8442  155.8928 C.ar    1  UNL1       -0.0003
     39 C         142.7730  142.4688  157.3363 C.ar    1  UNL1       -0.0038
@<TRIPOS>BOND
     1    20    19    1
     2    20    17    1
     3     9    17    1
     4     9    10    1
     5    10    11    1
     6    11    12    1
     7    12     1    1
     8     1     2    2
     9     1     3   am
    10     3     4    1
    11     4     5    1
    12     5     6    1
    13     6    27    1
    14    27    28    2
    15    27    29   am
    16    29    30    1
    17    30    31    1
    18    31    32    1
    19    32    33    1
    20     6    34    1
    21    34    35   ar
    22    35    36   ar
    23    36    37   ar
    24    37    38   ar
    25    38    39   ar
    26     6     7    1
    27     7     8    1
    28    12    13    1
    29    13    14    1
    30    13    15    1
    31    13    16    1
    32    20    21    1
    33    21    22   ar
    34    22    23   ar
    35    23    24   ar
    36    24    25   ar
    37    25    26   ar
    38    16     9    1
    39    26    21   ar
    40     8     3    1
    41    33    29    1
    42    39    34   ar
    43    17    18    1
@<TRIPOS>MOLECULE
*****
 39 43 0 0 0
SMALL
GASTEIGER

@<TRIPOS>ATOM
      1 C         140.3633  144.6448  162.1208 C.2     1  UNL1        0.2251
      2 O         140.4001  146.1353  161.9568 O.2     1  UNL1       -0.2749
      3 N         140.0764  143.7670  160.9388 N.am    1  UNL1       -0.2795
      4 C         140.0396  142.2765  161.1028 C.3     1  UNL1        0.0942
      5 C         139.7527  141.3988  159.9206 C.3     1  UNL1        0.0343
      6 C         139.5027  142.0116  158.5746 C.3     1  UNL1        0.0911
      7 C         139.5395  143.5022  158.4106 C.3     1  UNL1        0.0343
      8 C         139.8264  144.3799  159.5926 C.3     1  UNL1        0.0942
      9 C         141.1136  142.8063  166.1590 C.3     1  UNL1        0.0542
     10 C         142.1910  142.7898  165.1156 C.3     1  UNL1        0.0162
     11 C         141.9409  143.4026  163.7696 C.3     1  UNL1        0.0104
     12 C         140.6134  144.0319  163.4669 C.3     1  UNL1        0.0768
     13 C         139.5359  144.0484  164.5104 C.3     1  UNL1        0.0095
     14 C         138.2119  144.3092  165.1653 C.3     1  UNL1        0.0005
     15 C         138.8260  144.7518  163.3917 C.3     1  UNL1        0.0005
     16 C         139.7860  143.4356  165.8564 C.3     1  UNL1        0.0162
     17 N         141.3637  142.1935  167.5051 N.3     1  UNL1       -0.2962
     18 H         142.2411  142.5843  167.8482 H       1  UNL1        0.1235
     19 C         142.5346  140.1051  168.5139 C.3     1  UNL1        0.0220
     20 C         141.4701  140.7036  167.6429 C.3     1  UNL1        0.0768
     21 C         140.5120  139.8123  166.9097 C.ar    1  UNL1       -0.0080
     22 C         140.9754  139.0371  165.7121 C.ar    1  UNL1       -0.0030
     23 C         140.0174  138.1458  164.9789 C.ar    1  UNL1       -0.0003
     24 C         138.5958  138.0297  165.4432 C.ar    1  UNL1       -0.0000
     25 C         138.1323  138.8049  166.6409 C.ar    1  UNL1       -0.0003
     26 C         139.0904  139.6962  167.3741 C.ar    1  UNL1       -0.0030
     27 C         139.3621  140.5587  158.2295 C.2     1  UNL1        0.2286
     28 O         138.0019  139.9724  157.9923 O.2     1  UNL1       -0.2746
     29 N         140.5816  139.6920  158.1216 N.am    1  UNL1       -0.2793
     30 C         140.5974  138.2301  157.7862 C.3     1  UNL1        0.0935
     31 C         142.0249  137.7696  157.7874 C.3     1  UNL1        0.0233
     32 C         142.8914  138.9470  158.1236 C.3     1  UNL1        0.0233
     33 C         141.9994  140.1350  158.3301 C.3     1  UNL1        0.0935
     34 C         139.2038  142.1199  157.1087 C.ar    1  UNL1       -0.0145
     35 C         137.8104  142.4306  156.6483 C.ar    1  UNL1       -0.0038
     36 C         137.5115  142.5389  155.1824 C.ar    1  UNL1       -0.0003
     37 C         138.6059  142.3364  154.1769 C.ar    1  UNL1       -0.0000
     38 C         139.9993  142.0256  154.6372 C.ar    1  UNL1       -0.0003
     39 C         140.2982  141.9174  156.1031 C.ar    1  UNL1       -0.0038
@<TRIPOS>BOND
     1    20    19    1
     2    20    17    1
     3     9    17    1
     4     9    10    1
     5    10    11    1
     6    11    12    1
     7    12     1    1
     8     1     2    2
     9     1     3   am
    10     3     4    1
    11     4     5    1
    12     5     6    1
    13     6    27    1
    14    27    28    2
    15    27    29   am
    16    29    30    1
    17    30    31    1
    18    31    32    1
    19    32    33    1
    20     6    34    1
    21    34    35   ar
    22    35    36   ar
    23    36    37   ar
    24    37    38   ar
    25    38    39   ar
    26     6     7    1
    27     7     8    1
    28    12    13    1
    29    13    14    1
    30    13    15    1
    31    13    16    1
    32    20    21    1
    33    21    22   ar
    34    22    23   ar
    35    23    24   ar
    36    24    25   ar
    37    25    26   ar
    38    16     9    1
    39    26    21   ar
    40     8     3    1
    41    33    29    1
    42    39    34   ar
    43    17    18    1
@<TRIPOS>MOLECULE
*****
 39 43 0 0 0
SMALL
GASTEIGER

@<TRIPOS>ATOM
      1 C         139.0025  144.1394  162.3532 C.2     1  UNL1        0.2251
      2 O         137.6952  144.8729  162.4084 O.2     1  UNL1       -0.2749
      3 N         139.5870  143.5533  163.6041 N.am    1  UNL1       -0.2795
      4 C         140.8943  142.8198  163.5489 C.3     1  UNL1        0.0942
      5 C         141.4788  142.2337  164.7999 C.3     1  UNL1        0.0343
      6 C         140.7560  142.3811  166.1060 C.3     1  UNL1        0.0911
      7 C         139.4488  143.1145  166.1611 C.3     1  UNL1        0.0343
      8 C         138.8642  143.7007  164.9103 C.3     1  UNL1        0.0942
      9 C         141.1707  143.6975  158.4349 C.3     1  UNL1        0.0542
     10 C         141.5454  144.8012  159.3790 C.3     1  UNL1        0.0162
     11 C         140.8227  144.9485  160.6851 C.3     1  UNL1        0.0104
     12 C         139.7252  143.9921  161.0471 C.3     1  UNL1        0.0768
     13 C         139.3506  142.8884  160.1029 C.3     1  UNL1        0.0095
     14 C         138.6391  141.6915  159.5451 C.3     1  UNL1        0.0005
     15 C         138.3807  142.6200  161.2153 C.3     1  UNL1        0.0005
     16 C         140.0733  142.7411  158.7968 C.3     1  UNL1        0.0162
     17 N         141.8935  143.5502  157.1287 N.3     1  UNL1       -0.2962
     18 H         142.8668  143.8021  157.3007 H       1  UNL1        0.1235
     19 C         142.4432  145.1414  155.1499 C.3     1  UNL1        0.0220
     20 C         141.4476  144.3368  155.9320 C.3     1  UNL1        0.0768
     21 C         140.0062  144.3190  155.5172 C.ar    1  UNL1       -0.0080
     22 C         139.3297  143.0156  155.2118 C.ar    1  UNL1       -0.0030
     23 C         137.8883  142.9977  154.7970 C.ar    1  UNL1       -0.0003
     24 C         137.1234  144.2834  154.6877 C.ar    1  UNL1       -0.0000
     25 C         137.7999  145.5869  154.9931 C.ar    1  UNL1       -0.0003
     26 C         139.2413  145.6047  155.4079 C.ar    1  UNL1       -0.0030
     27 C         141.9571  141.6052  166.5590 C.2     1  UNL1        0.2286
     28 O         142.9792  142.2544  167.4444 O.2     1  UNL1       -0.2746
     29 N         142.1362  140.1800  166.1267 N.am    1  UNL1       -0.2793
     30 C         143.2799  139.2832  166.4977 C.3     1  UNL1        0.0935
     31 C         143.0536  137.9505  165.8479 C.3     1  UNL1        0.0233
     32 C         141.7701  138.0236  165.0751 C.3     1  UNL1        0.0233
     33 C         141.2031  139.4015  165.2475 C.3     1  UNL1        0.0935
     34 C         140.4504  142.2590  167.5694 C.ar    1  UNL1       -0.0145
     35 C         140.0110  140.9416  168.1365 C.ar    1  UNL1       -0.0038
     36 C         139.7054  140.8195  169.5999 C.ar    1  UNL1       -0.0003
     37 C         139.8391  142.0147  170.4963 C.ar    1  UNL1       -0.0000
     38 C         140.2785  143.3321  169.9292 C.ar    1  UNL1       -0.0003
     39 C         140.5841  143.4542  168.4658 C.ar    1  UNL1       -0.0038
@<TRIPOS>BOND
     1    20    19    1
     2    20    17    1
     3     9    17    1
     4     9    10    1
     5    10    11    1
     6    11    12    1
     7    12     1    1
     8     1     2    2
     9     1     3   am
    10     3     4    1
    11     4     5    1
    12     5     6    1
    13     6    27    1
    14    27    28    2
    15    27    29   am
    16    29    30    1
    17    30    31    1
    18    31    32    1
    19    32    33    1
    20     6    34    1
    21    34    35   ar
    22    35    36   ar
    23    36    37   ar
    24    37    38   ar
    25    38    39   ar
    26     6     7    1
    27     7     8    1
    28    12    13    1
    29    13    14    1
    30    13    15    1
    31    13    16    1
    32    20    21    1
    33    21    22   ar
    34    22    23   ar
    35    23    24   ar
    36    24    25   ar
    37    25    26   ar
    38    16     9    1
    39    26    21   ar
    40     8     3    1
    41    33    29    1
    42    39    34   ar
    43    17    18    1
@<TRIPOS>MOLECULE
*****
 39 43 0 0 0
SMALL
GASTEIGER

@<TRIPOS>ATOM
      1 C         139.3881  144.3310  161.9509 C.2     1  UNL1        0.2251
      2 O         138.8092  145.6882  162.2211 O.2     1  UNL1       -0.2749
      3 N         139.9745  143.5286  163.0744 N.am    1  UNL1       -0.2795
      4 C         140.5534  142.1714  162.8043 C.3     1  UNL1        0.0942
      5 C         141.1399  141.3690  163.9278 C.3     1  UNL1        0.0343
      6 C         141.1474  141.9238  165.3214 C.3     1  UNL1        0.0911
      7 C         140.5685  143.2810  165.5915 C.3     1  UNL1        0.0343
      8 C         139.9821  144.0834  164.4681 C.3     1  UNL1        0.0942
      9 C         139.3654  142.6667  157.7701 C.3     1  UNL1        0.0542
     10 C         138.4142  142.1278  158.7970 C.3     1  UNL1        0.0162
     11 C         138.4217  142.6825  160.1906 C.3     1  UNL1        0.0104
     12 C         139.3806  143.7763  160.5573 C.3     1  UNL1        0.0768
     13 C         140.3318  144.3152  159.5303 C.3     1  UNL1        0.0095
     14 C         141.4165  145.1472  158.9129 C.3     1  UNL1        0.0005
     15 C         140.7161  145.1589  160.7095 C.3     1  UNL1        0.0005
     16 C         140.3242  143.7605  158.1367 C.3     1  UNL1        0.0162
     17 N         139.3578  142.1120  156.3764 N.3     1  UNL1       -0.2962
     18 H         140.3312  141.9476  156.1196 H       1  UNL1        0.1235
     19 C         137.7203  142.2627  154.3649 C.3     1  UNL1        0.0220
     20 C         138.7424  142.9005  155.2586 C.3     1  UNL1        0.0768
     21 C         139.1490  144.3268  155.0345 C.ar    1  UNL1       -0.0080
     22 C         138.1787  145.4361  155.3138 C.ar    1  UNL1       -0.0030
     23 C         138.5853  146.8624  155.0896 C.ar    1  UNL1       -0.0003
     24 C         139.9622  147.1795  154.5862 C.ar    1  UNL1       -0.0000
     25 C         140.9326  146.0702  154.3068 C.ar    1  UNL1       -0.0003
     26 C         140.5260  144.6439  154.5310 C.ar    1  UNL1       -0.0030
     27 C         141.8087  140.5996  165.5646 C.2     1  UNL1        0.2286
     28 O         141.0854  139.5288  166.3263 O.2     1  UNL1       -0.2746
     29 N         143.1932  140.3462  165.0461 N.am    1  UNL1       -0.2793
     30 C         143.9780  139.0786  165.2107 C.3     1  UNL1        0.0935
     31 C         145.3058  139.2648  164.5383 C.3     1  UNL1        0.0233
     32 C         145.3417  140.6476  163.9582 C.3     1  UNL1        0.0233
     33 C         144.0360  141.3159  164.2720 C.3     1  UNL1        0.0935
     34 C         141.3846  142.0187  166.7995 C.ar    1  UNL1       -0.0145
     35 C         142.7726  142.2392  167.3237 C.ar    1  UNL1       -0.0038
     36 C         143.0098  142.3341  168.8018 C.ar    1  UNL1       -0.0003
     37 C         141.8590  142.2085  169.7556 C.ar    1  UNL1       -0.0000
     38 C         140.4710  141.9879  169.2314 C.ar    1  UNL1       -0.0003
     39 C         140.2338  141.8930  167.7533 C.ar    1  UNL1       -0.0038
@<TRIPOS>BOND
     1    20    19    1
     2    20    17    1
     3     9    17    1
     4     9    10    1
     5    10    11    1
     6    11    12    1
     7    12     1    1
     8     1     2    2
     9     1     3   am
    10     3     4    1
    11     4     5    1
    12     5     6    1
    13     6    27    1
    14    27    28    2
    15    27    29   am
    16    29    30    1
    17    30    31    1
    18    31    32    1
    19    32    33    1
    20     6    34    1
    21    34    35   ar
    22    35    36   ar
    23    36    37   ar
    24    37    38   ar
    25    38    39   ar
    26     6     7    1
    27     7     8    1
    28    12    13    1
    29    13    14    1
    30    13    15    1
    31    13    16    1
    32    20    21    1
    33    21    22   ar
    34    22    23   ar
    35    23    24   ar
    36    24    25   ar
    37    25    26   ar
    38    16     9    1
    39    26    21   ar
    40     8     3    1
    41    33    29    1
    42    39    34   ar
    43    17    18    1
@<TRIPOS>MOLECULE
*****
 39 43 0 0 0
SMALL
GASTEIGER

@<TRIPOS>ATOM
      1 C         140.3648  145.2925  162.0310 C.2     1  UNL1        0.2251
      2 O         139.9482  146.7323  162.0908 O.2     1  UNL1       -0.2749
      3 N         140.6581  144.6509  160.7073 N.am    1  UNL1       -0.2795
      4 C         141.0748  143.2112  160.6476 C.3     1  UNL1        0.0942
      5 C         141.3681  142.5696  159.3238 C.3     1  UNL1        0.0343
      6 C         141.2448  143.3678  158.0598 C.3     1  UNL1        0.0911
      7 C         140.8282  144.8075  158.1195 C.3     1  UNL1        0.0343
      8 C         140.5349  145.4491  159.4432 C.3     1  UNL1        0.0942
      9 C         140.7347  142.8981  165.8231 C.3     1  UNL1        0.0542
     10 C         141.9676  143.3631  165.1065 C.3     1  UNL1        0.0162
     11 C         141.8443  144.1612  163.8425 C.3     1  UNL1        0.0104
     12 C         140.4881  144.4944  163.2951 C.3     1  UNL1        0.0768
     13 C         139.2551  144.0294  164.0118 C.3     1  UNL1        0.0095
     14 C         137.8043  143.8159  164.3276 C.3     1  UNL1        0.0005
     15 C         138.6280  144.7534  162.8574 C.3     1  UNL1        0.0005
     16 C         139.3784  143.2313  165.2758 C.3     1  UNL1        0.0162
     17 N         140.8580  142.1000  167.0872 N.3     1  UNL1       -0.2962
     18 H         141.5249  142.5917  167.6820 H       1  UNL1        0.1235
     19 C         142.6335  140.2730  167.5966 C.3     1  UNL1        0.0220
     20 C         141.3021  140.6684  167.0300 C.3     1  UNL1        0.0768
     21 C         140.4149  139.6322  166.4062 C.ar    1  UNL1       -0.0080
     22 C         140.9537  138.7290  165.3367 C.ar    1  UNL1       -0.0030
     23 C         140.0665  137.6928  164.7129 C.ar    1  UNL1       -0.0003
     24 C         138.6404  137.5599  165.1585 C.ar    1  UNL1       -0.0000
     25 C         138.1015  138.4632  166.2280 C.ar    1  UNL1       -0.0003
     26 C         138.9887  139.4993  166.8519 C.ar    1  UNL1       -0.0030
     27 C         141.6699  142.0458  157.4927 C.2     1  UNL1        0.2286
     28 O         140.6393  141.0142  157.1413 O.2     1  UNL1       -0.2746
     29 N         143.1257  141.7554  157.2770 N.am    1  UNL1       -0.2793
     30 C         143.6984  140.4854  156.7212 C.3     1  UNL1        0.0935
     31 C         145.1909  140.6291  156.6799 C.3     1  UNL1        0.0233
     32 C         145.5406  141.9880  157.2103 C.3     1  UNL1        0.0233
     33 C         144.2642  142.6840  157.5793 C.3     1  UNL1        0.0935
     34 C         141.2692  143.7068  156.5988 C.ar    1  UNL1       -0.0145
     35 C         142.2246  144.7429  156.0852 C.ar    1  UNL1       -0.0038
     36 C         142.2490  145.0819  154.6242 C.ar    1  UNL1       -0.0003
     37 C         141.3180  144.3850  153.6769 C.ar    1  UNL1       -0.0000
     38 C         140.3625  143.3490  154.1906 C.ar    1  UNL1       -0.0003
     39 C         140.3382  143.0099  155.6516 C.ar    1  UNL1       -0.0038
@<TRIPOS>BOND
     1    20    19    1
     2    20    17    1
     3     9    17    1
     4     9    10    1
     5    10    11    1
     6    11    12    1
     7    12     1    1
     8     1     2    2
     9     1     3   am
    10     3     4    1
    11     4     5    1
    12     5     6    1
    13     6    27    1
    14    27    28    2
    15    27    29   am
    16    29    30    1
    17    30    31    1
    18    31    32    1
    19    32    33    1
    20     6    34    1
    21    34    35   ar
    22    35    36   ar
    23    36    37   ar
    24    37    38   ar
    25    38    39   ar
    26     6     7    1
    27     7     8    1
    28    12    13    1
    29    13    14    1
    30    13    15    1
    31    13    16    1
    32    20    21    1
    33    21    22   ar
    34    22    23   ar
    35    23    24   ar
    36    24    25   ar
    37    25    26   ar
    38    16     9    1
    39    26    21   ar
    40     8     3    1
    41    33    29    1
    42    39    34   ar
    43    17    18    1
@<TRIPOS>MOLECULE
*****
 39 43 0 0 0
SMALL
GASTEIGER

@<TRIPOS>ATOM
      1 C         139.2972  144.1846  162.1533 C.2     1  UNL1        0.2251
      2 O         138.7265  145.5497  162.3995 O.2     1  UNL1       -0.2749
      3 N         139.9358  143.4246  163.2779 N.am    1  UNL1       -0.2795
      4 C         140.5065  142.0594  163.0317 C.3     1  UNL1        0.0942
      5 C         141.1451  141.2995  164.1563 C.3     1  UNL1        0.0343
      6 C         141.2130  141.9048  165.5270 C.3     1  UNL1        0.0911
      7 C         140.6423  143.2700  165.7732 C.3     1  UNL1        0.0343
      8 C         140.0037  144.0299  164.6487 C.3     1  UNL1        0.0942
      9 C         139.0932  142.3688  158.0410 C.3     1  UNL1        0.0542
     10 C         138.2704  141.7946  159.1559 C.3     1  UNL1        0.0162
     11 C         138.3384  142.3999  160.5267 C.3     1  UNL1        0.0104
     12 C         139.2292  143.5793  160.7825 C.3     1  UNL1        0.0768
     13 C         140.0521  144.1534  159.6675 C.3     1  UNL1        0.0095
     14 C         141.0147  145.0454  158.9409 C.3     1  UNL1        0.0005
     15 C         140.4544  145.0685  160.7860 C.3     1  UNL1        0.0005
     16 C         139.9841  143.5482  158.2967 C.3     1  UNL1        0.0162
     17 N         139.0253  141.7635  156.6701 N.3     1  UNL1       -0.2962
     18 H         139.9788  141.7459  156.3085 H       1  UNL1        0.1235
     19 C         138.6825  143.5844  154.8488 C.3     1  UNL1        0.0220
     20 C         138.1724  142.3978  155.6117 C.3     1  UNL1        0.0768
     21 C         136.8095  141.8455  155.3161 C.ar    1  UNL1       -0.0080
     22 C         136.0690  141.0731  156.3673 C.ar    1  UNL1       -0.0030
     23 C         134.7061  140.5208  156.0716 C.ar    1  UNL1       -0.0003
     24 C         134.0836  140.7409  154.7248 C.ar    1  UNL1       -0.0000
     25 C         134.8241  141.5133  153.6735 C.ar    1  UNL1       -0.0003
     26 C         136.1870  142.0656  153.9691 C.ar    1  UNL1       -0.0030
     27 C         141.8888  140.5914  165.7884 C.2     1  UNL1        0.2286
     28 O         141.2183  139.5609  166.6478 O.2     1  UNL1       -0.2746
     29 N         143.2350  140.3085  165.1904 N.am    1  UNL1       -0.2793
     30 C         144.0287  139.0474  165.3624 C.3     1  UNL1        0.0935
     31 C         145.3081  139.1964  164.5937 C.3     1  UNL1        0.0233
     32 C         145.3050  140.5497  163.9465 C.3     1  UNL1        0.0233
     33 C         144.0238  141.2369  164.3153 C.3     1  UNL1        0.0935
     34 C         141.5156  142.0539  166.9886 C.ar    1  UNL1       -0.0145
     35 C         140.3988  142.0498  167.9900 C.ar    1  UNL1       -0.0038
     36 C         140.7014  142.1990  169.4515 C.ar    1  UNL1       -0.0003
     37 C         142.1208  142.3522  169.9117 C.ar    1  UNL1       -0.0000
     38 C         143.2376  142.3563  168.9103 C.ar    1  UNL1       -0.0003
     39 C         142.9350  142.2072  167.4488 C.ar    1  UNL1       -0.0038
@<TRIPOS>BOND
     1    20    19    1
     2    20    17    1
     3     9    17    1
     4     9    10    1
     5    10    11    1
     6    11    12    1
     7    12     1    1
     8     1     2    2
     9     1     3   am
    10     3     4    1
    11     4     5    1
    12     5     6    1
    13     6    27    1
    14    27    28    2
    15    27    29   am
    16    29    30    1
    17    30    31    1
    18    31    32    1
    19    32    33    1
    20     6    34    1
    21    34    35   ar
    22    35    36   ar
    23    36    37   ar
    24    37    38   ar
    25    38    39   ar
    26     6     7    1
    27     7     8    1
    28    12    13    1
    29    13    14    1
    30    13    15    1
    31    13    16    1
    32    20    21    1
    33    21    22   ar
    34    22    23   ar
    35    23    24   ar
    36    24    25   ar
    37    25    26   ar
    38    16     9    1
    39    26    21   ar
    40     8     3    1
    41    33    29    1
    42    39    34   ar
    43    17    18    1
