@<TRIPOS>MOLECULE
*****
 37 40 0 0 0
SMALL
GASTEIGER

@<TRIPOS>ATOM
      1 C         140.2578  141.0098  161.0821 C.2     1  UNL1        0.1397
      2 C         140.4456  140.1541  159.8645 C.2     1  UNL1        0.1355
      3 N         139.5272  140.3105  158.6890 N.pl3   1  UNL1       -0.1998
      4 C         138.4209  141.3226  158.7309 C.2     1  UNL1        0.3442
      5 N         138.2330  142.1782  159.9485 N.2     1  UNL1       -0.0580
      6 C         139.1515  142.0218  161.1241 C.3     1  UNL1        0.2692
      7 H         139.6505  139.7489  157.8898 H       1  UNL1        0.2983
      8 C         138.9636  142.8775  162.3417 C.ar    1  UNL1        0.0371
      9 C         138.0832  142.4062  163.4610 C.ar    1  UNL1        0.0030
     10 C         137.8953  143.2619  164.6786 C.ar    1  UNL1        0.0295
     11 C         138.5877  144.5889  164.7769 C.ar    1  UNL1        0.1406
     12 F         138.3998  145.4445  165.9945 F       1  UNL1       -0.2042
     13 C         139.4681  145.0602  163.6576 C.ar    1  UNL1        0.0362
     14 C         139.6560  144.2045  162.4400 C.ar    1  UNL1        0.0372
     15 BR        140.5363  144.6758  161.3207 Br      1  UNL1       -0.0491
     16 C         137.5024  141.4790  157.5554 C.ar    1  UNL1        0.1927
     17 N         136.3601  140.5732  157.2023 N.ar    1  UNL1       -0.2351
     18 C         135.7167  141.1030  155.9552 C.ar    1  UNL1        0.0775
     19 C         136.4614  142.3362  155.5374 C.ar    1  UNL1        0.0524
     20 S         137.5651  142.5686  156.5264 S.2     1  UNL1       -0.0590
     21 C         134.5359  140.5047  155.2497 C.3     1  UNL1        0.1556
     22 C         133.3914  139.9476  156.0432 C.2     1  UNL1        0.3232
     23 O         132.0705  140.6584  156.0549 O.2     1  UNL1       -0.2497
     24 O         133.5678  138.6797  156.8251 O.3     1  UNL1       -0.4441
     25 C         133.2346  138.6479  158.2874 C.3     1  UNL1        0.2556
     26 C         141.1762  140.8534  162.2577 C.2     1  UNL1        0.3447
     27 O         142.3484  141.7748  162.4215 O.2     1  UNL1       -0.2450
     28 O         140.9225  139.7755  163.2695 O.3     1  UNL1       -0.4455
     29 C         139.4517  137.6809  162.8227 C.3     1  UNL1        0.0513
     30 C         139.5889  139.0904  163.3172 C.3     1  UNL1        0.2089
     31 C         141.5520  139.1420  159.8225 C.3     1  UNL1        0.1405
     32 N         142.4003  139.0088  158.5927 N.3     1  UNL1       -0.2617
     33 C         142.3823  137.7333  157.8036 C.3     1  UNL1        0.1050
     34 C         143.2307  137.6001  156.5737 C.3     1  UNL1        0.1595
     35 O         144.0971  138.7426  156.1330 O.3     1  UNL1       -0.3508
     36 C         144.1151  140.0181  156.9220 C.3     1  UNL1        0.1595
     37 C         143.2667  140.1513  158.1518 C.3     1  UNL1        0.1050
@<TRIPOS>BOND
     1    29    30    1
     2    30    28    1
     3    28    26    1
     4    26    27    2
     5    26     1    1
     6     1     2    2
     7     2    31    1
     8    31    32    1
     9    32    33    1
    10    33    34    1
    11    34    35    1
    12    35    36    1
    13    36    37    1
    14     2     3    1
    15     3     4    1
    16     4    16    1
    17    16    17   ar
    18    17    18   ar
    19    18    21    1
    20    21    22    1
    21    22    23    2
    22    22    24    1
    23    24    25    1
    24    18    19   ar
    25    19    20   ar
    26     4     5    2
    27     5     6    1
    28     6     8    1
    29     8     9   ar
    30     9    10   ar
    31    10    11   ar
    32    11    12    1
    33    11    13   ar
    34    13    14   ar
    35    14    15    1
    36     6     1    1
    37    14     8   ar
    38    37    32    1
    39    20    16   ar
    40     3     7    1
@<TRIPOS>MOLECULE
*****
 37 40 0 0 0
SMALL
GASTEIGER

@<TRIPOS>ATOM
      1 C         140.6943  141.6127  160.7991 C.2     1  UNL1        0.1397
      2 C         140.9661  140.8687  159.5253 C.2     1  UNL1        0.1355
      3 N         139.9603  140.8942  158.4127 N.pl3   1  UNL1       -0.1998
      4 C         138.6829  141.6636  158.5739 C.2     1  UNL1        0.3442
      5 N         138.4111  142.4076  159.8477 N.2     1  UNL1       -0.0580
      6 C         139.4169  142.3821  160.9603 C.3     1  UNL1        0.2692
      7 H         140.1387  140.4059  157.5766 H       1  UNL1        0.2983
      8 C         139.1451  143.1262  162.2342 C.ar    1  UNL1        0.0371
      9 C         138.4483  142.4382  163.3705 C.ar    1  UNL1        0.0030
     10 C         138.1765  143.1821  164.6443 C.ar    1  UNL1        0.0295
     11 C         138.6015  144.6141  164.7818 C.ar    1  UNL1        0.1406
     12 F         138.3297  145.3581  166.0556 F       1  UNL1       -0.2042
     13 C         139.2983  145.3021  163.6455 C.ar    1  UNL1        0.0362
     14 C         139.5701  144.5581  162.3717 C.ar    1  UNL1        0.0372
     15 BR        140.2669  145.2460  161.2354 Br      1  UNL1       -0.0491
     16 C         137.6771  141.6891  157.4613 C.ar    1  UNL1        0.1927
     17 N         136.6626  140.6246  157.1654 N.ar    1  UNL1       -0.2351
     18 C         135.8678  141.0611  155.9705 C.ar    1  UNL1        0.0775
     19 C         136.3911  142.3954  155.5279 C.ar    1  UNL1        0.0524
     20 S         137.5094  142.7835  156.4493 S.2     1  UNL1       -0.0590
     21 C         134.7465  140.2974  155.3305 C.3     1  UNL1        0.1556
     22 C         133.5488  139.9025  156.1425 C.2     1  UNL1        0.3232
     23 O         132.3512  140.8038  156.1998 O.2     1  UNL1       -0.2497
     24 O         133.5487  138.6062  156.8972 O.3     1  UNL1       -0.4441
     25 C         133.1749  138.5841  158.3498 C.3     1  UNL1        0.2556
     26 C         141.7001  141.5872  161.9117 C.2     1  UNL1        0.3447
     27 O         141.6738  140.4782  162.9212 O.2     1  UNL1       -0.2450
     28 O         142.7321  142.6708  162.0147 O.3     1  UNL1       -0.4455
     29 C         143.4736  144.7869  163.3272 C.3     1  UNL1        0.0513
     30 C         142.9437  143.3836  163.3175 C.3     1  UNL1        0.2089
     31 C         142.2436  140.0993  159.3640 C.3     1  UNL1        0.1405
     32 N         143.3313  140.6289  158.4773 N.3     1  UNL1       -0.2617
     33 C         143.6928  139.9004  157.2169 C.3     1  UNL1        0.1050
     34 C         144.7805  140.4300  156.3301 C.3     1  UNL1        0.1595
     35 O         145.5067  141.6882  156.7038 O.3     1  UNL1       -0.3508
     36 C         145.1453  142.4167  157.9642 C.3     1  UNL1        0.1595
     37 C         144.0576  141.8871  158.8509 C.3     1  UNL1        0.1050
@<TRIPOS>BOND
     1    29    30    1
     2    30    28    1
     3    28    26    1
     4    26    27    2
     5    26     1    1
     6     1     2    2
     7     2    31    1
     8    31    32    1
     9    32    33    1
    10    33    34    1
    11    34    35    1
    12    35    36    1
    13    36    37    1
    14     2     3    1
    15     3     4    1
    16     4    16    1
    17    16    17   ar
    18    17    18   ar
    19    18    21    1
    20    21    22    1
    21    22    23    2
    22    22    24    1
    23    24    25    1
    24    18    19   ar
    25    19    20   ar
    26     4     5    2
    27     5     6    1
    28     6     8    1
    29     8     9   ar
    30     9    10   ar
    31    10    11   ar
    32    11    12    1
    33    11    13   ar
    34    13    14   ar
    35    14    15    1
    36     6     1    1
    37    14     8   ar
    38    37    32    1
    39    20    16   ar
    40     3     7    1
@<TRIPOS>MOLECULE
*****
 37 40 0 0 0
SMALL
GASTEIGER

@<TRIPOS>ATOM
      1 C         141.1887  140.2018  160.6470 C.2     1  UNL1        0.1397
      2 C         140.8643  140.4432  159.2026 C.2     1  UNL1        0.1355
      3 N         141.4003  139.5198  158.1490 N.pl3   1  UNL1       -0.1998
      4 C         142.2608  138.3550  158.5399 C.2     1  UNL1        0.3442
      5 N         142.5851  138.1136  159.9844 N.2     1  UNL1       -0.0580
      6 C         142.0491  139.0370  161.0379 C.3     1  UNL1        0.2692
      7 H         141.1874  139.6782  157.2010 H       1  UNL1        0.2983
      8 C         142.3735  138.7955  162.4824 C.ar    1  UNL1        0.0371
      9 C         141.4918  137.9090  163.3111 C.ar    1  UNL1        0.0030
     10 C         141.8162  137.6676  164.7555 C.ar    1  UNL1        0.0295
     11 C         143.0223  138.3127  165.3714 C.ar    1  UNL1        0.1406
     12 F         143.3467  138.0712  166.8158 F       1  UNL1       -0.2042
     13 C         143.9040  139.1992  164.5427 C.ar    1  UNL1        0.0362
     14 C         143.5796  139.4406  163.0982 C.ar    1  UNL1        0.0372
     15 BR        144.4613  140.3272  162.2695 Br      1  UNL1       -0.0491
     16 C         142.7968  137.4315  157.4864 C.ar    1  UNL1        0.1927
     17 N         142.9216  135.9411  157.6008 N.ar    1  UNL1       -0.2351
     18 C         143.5041  135.4249  156.3186 C.ar    1  UNL1        0.0775
     19 C         143.7393  136.5962  155.4116 C.ar    1  UNL1        0.0524
     20 S         143.3022  137.8364  156.1334 S.2     1  UNL1       -0.0590
     21 C         143.7995  133.9893  155.9994 C.3     1  UNL1        0.1556
     22 C         143.8095  132.9643  157.0944 C.2     1  UNL1        0.3232
     23 O         144.8813  132.9979  158.1434 O.2     1  UNL1       -0.2497
     24 O         142.7479  131.9056  157.1405 O.3     1  UNL1       -0.4441
     25 C         143.1311  130.4563  157.0855 C.3     1  UNL1        0.2556
     26 C         140.6526  141.1252  161.7006 C.2     1  UNL1        0.3447
     27 O         141.3860  142.3909  162.0322 O.2     1  UNL1       -0.2450
     28 O         139.3831  140.7829  162.4225 O.3     1  UNL1       -0.4455
     29 C         138.0828  138.5575  162.0955 C.3     1  UNL1        0.0513
     30 C         138.3144  139.9930  161.7269 C.3     1  UNL1        0.2089
     31 C         140.0038  141.6080  158.8116 C.3     1  UNL1        0.1405
     32 N         140.6020  142.9792  158.7027 N.3     1  UNL1       -0.2617
     33 C         139.9217  144.1480  159.3516 C.3     1  UNL1        0.1050
     34 C         140.5200  145.5193  159.2427 C.3     1  UNL1        0.1595
     35 O         141.7986  145.7216  158.4849 O.3     1  UNL1       -0.3508
     36 C         142.4789  144.5528  157.8360 C.3     1  UNL1        0.1595
     37 C         141.8806  143.1817  157.9449 C.3     1  UNL1        0.1050
@<TRIPOS>BOND
     1    29    30    1
     2    30    28    1
     3    28    26    1
     4    26    27    2
     5    26     1    1
     6     1     2    2
     7     2    31    1
     8    31    32    1
     9    32    33    1
    10    33    34    1
    11    34    35    1
    12    35    36    1
    13    36    37    1
    14     2     3    1
    15     3     4    1
    16     4    16    1
    17    16    17   ar
    18    17    18   ar
    19    18    21    1
    20    21    22    1
    21    22    23    2
    22    22    24    1
    23    24    25    1
    24    18    19   ar
    25    19    20   ar
    26     4     5    2
    27     5     6    1
    28     6     8    1
    29     8     9   ar
    30     9    10   ar
    31    10    11   ar
    32    11    12    1
    33    11    13   ar
    34    13    14   ar
    35    14    15    1
    36     6     1    1
    37    14     8   ar
    38    37    32    1
    39    20    16   ar
    40     3     7    1
@<TRIPOS>MOLECULE
*****
 37 40 0 0 0
SMALL
GASTEIGER

@<TRIPOS>ATOM
      1 C         139.9638  144.1561  159.7652 C.2     1  UNL1        0.1397
      2 C         139.9977  144.5076  158.3074 C.2     1  UNL1        0.1355
      3 N         139.2645  143.6566  157.3134 N.pl3   1  UNL1       -0.1998
      4 C         138.4972  142.4540  157.7772 C.2     1  UNL1        0.3442
      5 N         138.4633  142.1025  159.2350 N.2     1  UNL1       -0.0580
      6 C         139.1965  142.9536  160.2290 C.3     1  UNL1        0.2692
      7 H         139.2868  143.8873  156.3566 H       1  UNL1        0.2983
      8 C         139.1625  142.6020  161.6869 C.ar    1  UNL1        0.0371
      9 C         138.1496  143.2421  162.5893 C.ar    1  UNL1        0.0030
     10 C         138.1156  142.8906  164.0471 C.ar    1  UNL1        0.0295
     11 C         139.0945  141.8989  164.6026 C.ar    1  UNL1        0.1406
     12 F         139.0605  141.5474  166.0604 F       1  UNL1       -0.2042
     13 C         140.1074  141.2588  163.7002 C.ar    1  UNL1        0.0362
     14 C         140.1414  141.6104  162.2423 C.ar    1  UNL1        0.0372
     15 BR        141.1543  140.9703  161.3399 Br      1  UNL1       -0.0491
     16 C         137.7640  141.6030  156.7832 C.ar    1  UNL1        0.1927
     17 N         136.2935  141.3070  156.7909 N.ar    1  UNL1       -0.2351
     18 C         135.9931  140.4196  155.6194 C.ar    1  UNL1        0.0775
     19 C         137.2780  140.1670  154.8878 C.ar    1  UNL1        0.0524
     20 S         138.3724  140.8984  155.6071 S.2     1  UNL1       -0.0590
     21 C         134.6446  139.8795  155.2453 C.3     1  UNL1        0.1556
     22 C         133.5818  139.7250  156.2925 C.2     1  UNL1        0.3232
     23 O         133.5467  138.4945  157.1496 O.2     1  UNL1       -0.2497
     24 O         132.5541  140.8009  156.4824 O.3     1  UNL1       -0.4441
     25 C         131.1025  140.5007  156.2521 C.3     1  UNL1        0.2556
     26 C         140.6970  145.0072  160.7592 C.2     1  UNL1        0.3447
     27 O         139.9865  146.1316  161.4524 O.2     1  UNL1       -0.2450
     28 O         142.1409  144.7337  161.0600 O.3     1  UNL1       -0.4455
     29 C         141.7118  144.7175  163.6224 C.3     1  UNL1        0.0513
     30 C         142.5553  144.3302  162.4440 C.3     1  UNL1        0.2089
     31 C         140.7650  145.7102  157.8436 C.3     1  UNL1        0.1405
     32 N         140.3692  146.4098  156.5771 N.3     1  UNL1       -0.2617
     33 C         139.2813  147.4423  156.5992 C.3     1  UNL1        0.1050
     34 C         138.8855  148.1419  155.3326 C.3     1  UNL1        0.1595
     35 O         139.5775  147.8089  154.0441 O.3     1  UNL1       -0.3508
     36 C         140.6653  146.7763  154.0221 C.3     1  UNL1        0.1595
     37 C         141.0612  146.0768  155.2885 C.3     1  UNL1        0.1050
@<TRIPOS>BOND
     1    29    30    1
     2    30    28    1
     3    28    26    1
     4    26    27    2
     5    26     1    1
     6     1     2    2
     7     2    31    1
     8    31    32    1
     9    32    33    1
    10    33    34    1
    11    34    35    1
    12    35    36    1
    13    36    37    1
    14     2     3    1
    15     3     4    1
    16     4    16    1
    17    16    17   ar
    18    17    18   ar
    19    18    21    1
    20    21    22    1
    21    22    23    2
    22    22    24    1
    23    24    25    1
    24    18    19   ar
    25    19    20   ar
    26     4     5    2
    27     5     6    1
    28     6     8    1
    29     8     9   ar
    30     9    10   ar
    31    10    11   ar
    32    11    12    1
    33    11    13   ar
    34    13    14   ar
    35    14    15    1
    36     6     1    1
    37    14     8   ar
    38    37    32    1
    39    20    16   ar
    40     3     7    1
@<TRIPOS>MOLECULE
*****
 37 40 0 0 0
SMALL
GASTEIGER

@<TRIPOS>ATOM
      1 C         140.5008  141.1390  161.1416 C.2     1  UNL1        0.1397
      2 C         140.7328  140.3014  159.9191 C.2     1  UNL1        0.1355
      3 N         139.8161  140.4274  158.7385 N.pl3   1  UNL1       -0.1998
      4 C         138.6673  141.3909  158.7804 C.2     1  UNL1        0.3442
      5 N         138.4353  142.2285  160.0029 N.2     1  UNL1       -0.0580
      6 C         139.3520  142.1026  161.1835 C.3     1  UNL1        0.2692
      7 H         139.9684  139.8776  157.9361 H       1  UNL1        0.2983
      8 C         139.1199  142.9403  162.4060 C.ar    1  UNL1        0.0371
      9 C         139.8211  144.2577  162.5566 C.ar    1  UNL1        0.0030
     10 C         139.5890  145.0954  163.7791 C.ar    1  UNL1        0.0295
     11 C         138.6558  144.6156  164.8510 C.ar    1  UNL1        0.1406
     12 F         138.4238  145.4533  166.0735 F       1  UNL1       -0.2042
     13 C         137.9547  143.2981  164.7004 C.ar    1  UNL1        0.0362
     14 C         138.1868  142.4604  163.4779 C.ar    1  UNL1        0.0372
     15 BR        137.4856  141.1430  163.3273 Br      1  UNL1       -0.0491
     16 C         137.7506  141.5169  157.5999 C.ar    1  UNL1        0.1927
     17 N         136.6333  140.5802  157.2473 N.ar    1  UNL1       -0.2351
     18 C         135.9823  141.0861  155.9941 C.ar    1  UNL1        0.0775
     19 C         136.6973  142.3354  155.5722 C.ar    1  UNL1        0.0524
     20 S         137.7901  142.6016  156.5646 S.2     1  UNL1       -0.0590
     21 C         134.8204  140.4536  155.2870 C.3     1  UNL1        0.1556
     22 C         133.6240  139.9986  156.0691 C.2     1  UNL1        0.3232
     23 O         132.3856  140.8441  156.1050 O.2     1  UNL1       -0.2497
     24 O         133.6661  138.6979  156.8151 O.3     1  UNL1       -0.4441
     25 C         132.9236  138.5519  158.1103 C.3     1  UNL1        0.2556
     26 C         141.4175  141.0130  162.3221 C.2     1  UNL1        0.3447
     27 O         141.1405  139.9872  163.3807 O.2     1  UNL1       -0.2450
     28 O         142.6113  141.9130  162.4440 O.3     1  UNL1       -0.4455
     29 C         144.6548  141.2260  163.8941 C.3     1  UNL1        0.0513
     30 C         143.3691  141.9827  163.7367 C.3     1  UNL1        0.2089
     31 C         141.8816  139.3378  159.8771 C.3     1  UNL1        0.1405
     32 N         142.6005  139.0836  158.5854 N.3     1  UNL1       -0.2617
     33 C         142.4998  137.7418  157.9224 C.3     1  UNL1        0.1050
     34 C         143.2188  137.4877  156.6306 C.3     1  UNL1        0.1595
     35 O         144.0384  138.5753  156.0019 O.3     1  UNL1       -0.3508
     36 C         144.1391  139.9171  156.6649 C.3     1  UNL1        0.1595
     37 C         143.4202  140.1712  157.9566 C.3     1  UNL1        0.1050
@<TRIPOS>BOND
     1    29    30    1
     2    30    28    1
     3    28    26    1
     4    26    27    2
     5    26     1    1
     6     1     2    2
     7     2    31    1
     8    31    32    1
     9    32    33    1
    10    33    34    1
    11    34    35    1
    12    35    36    1
    13    36    37    1
    14     2     3    1
    15     3     4    1
    16     4    16    1
    17    16    17   ar
    18    17    18   ar
    19    18    21    1
    20    21    22    1
    21    22    23    2
    22    22    24    1
    23    24    25    1
    24    18    19   ar
    25    19    20   ar
    26     4     5    2
    27     5     6    1
    28     6     8    1
    29     8     9   ar
    30     9    10   ar
    31    10    11   ar
    32    11    12    1
    33    11    13   ar
    34    13    14   ar
    35    14    15    1
    36     6     1    1
    37    14     8   ar
    38    37    32    1
    39    20    16   ar
    40     3     7    1
@<TRIPOS>MOLECULE
*****
 37 40 0 0 0
SMALL
GASTEIGER

@<TRIPOS>ATOM
      1 C         142.1961  141.1136  161.6214 C.2     1  UNL1        0.1397
      2 C         141.7955  141.5563  160.2454 C.2     1  UNL1        0.1355
      3 N         141.7275  140.5593  159.1268 N.pl3   1  UNL1       -0.1998
      4 C         142.0601  139.1195  159.3842 C.2     1  UNL1        0.3442
      5 N         142.4607  138.6767  160.7602 N.2     1  UNL1       -0.0580
      6 C         142.5287  139.6738  161.8788 C.3     1  UNL1        0.2692
      7 H         141.4646  140.8499  158.2237 H       1  UNL1        0.2983
      8 C         142.9292  139.2309  163.2549 C.ar    1  UNL1        0.0371
      9 C         144.3618  139.3320  163.6879 C.ar    1  UNL1        0.0030
     10 C         144.7624  138.8892  165.0639 C.ar    1  UNL1        0.0295
     11 C         143.7304  138.3453  166.0070 C.ar    1  UNL1        0.1406
     12 F         144.1311  137.9025  167.3830 F       1  UNL1       -0.2042
     13 C         142.2979  138.2443  165.5739 C.ar    1  UNL1        0.0362
     14 C         141.8973  138.6871  164.1979 C.ar    1  UNL1        0.0372
     15 BR        140.4647  138.5860  163.7648 Br      1  UNL1       -0.0491
     16 C         141.9921  138.1225  158.2656 C.ar    1  UNL1        0.1927
     17 N         142.9940  137.0418  157.9856 N.ar    1  UNL1       -0.2351
     18 C         142.5314  136.2825  156.7775 C.ar    1  UNL1        0.0775
     19 C         141.2436  136.8938  156.3109 C.ar    1  UNL1        0.0524
     20 S         140.9104  138.0310  157.2305 S.2     1  UNL1       -0.0590
     21 C         143.2334  135.1165  156.1469 C.3     1  UNL1        0.1556
     22 C         143.3145  133.8071  156.8742 C.2     1  UNL1        0.3232
     23 O         144.4683  133.5288  157.7914 O.2     1  UNL1       -0.2497
     24 O         142.2417  132.7761  156.6842 O.3     1  UNL1       -0.4441
     25 C         141.5897  132.6104  155.3434 C.3     1  UNL1        0.2556
     26 C         142.2641  142.1106  162.7400 C.2     1  UNL1        0.3447
     27 O         141.1754  142.1566  163.7709 O.2     1  UNL1       -0.2450
     28 O         143.4207  143.0616  162.8278 O.3     1  UNL1       -0.4455
     29 C         143.9862  142.6609  165.3318 C.3     1  UNL1        0.0513
     30 C         144.4351  142.9098  163.9223 C.3     1  UNL1        0.2089
     31 C         141.4629  142.9962  159.9879 C.3     1  UNL1        0.1405
     32 N         140.3919  143.6737  160.7904 N.3     1  UNL1       -0.2617
     33 C         139.1248  142.9414  161.1194 C.3     1  UNL1        0.1050
     34 C         138.0538  143.6190  161.9219 C.3     1  UNL1        0.1595
     35 O         138.2500  145.0286  162.3955 O.3     1  UNL1       -0.3508
     36 C         139.5171  145.7608  162.0665 C.3     1  UNL1        0.1595
     37 C         140.5881  145.0834  161.2640 C.3     1  UNL1        0.1050
@<TRIPOS>BOND
     1    29    30    1
     2    30    28    1
     3    28    26    1
     4    26    27    2
     5    26     1    1
     6     1     2    2
     7     2    31    1
     8    31    32    1
     9    32    33    1
    10    33    34    1
    11    34    35    1
    12    35    36    1
    13    36    37    1
    14     2     3    1
    15     3     4    1
    16     4    16    1
    17    16    17   ar
    18    17    18   ar
    19    18    21    1
    20    21    22    1
    21    22    23    2
    22    22    24    1
    23    24    25    1
    24    18    19   ar
    25    19    20   ar
    26     4     5    2
    27     5     6    1
    28     6     8    1
    29     8     9   ar
    30     9    10   ar
    31    10    11   ar
    32    11    12    1
    33    11    13   ar
    34    13    14   ar
    35    14    15    1
    36     6     1    1
    37    14     8   ar
    38    37    32    1
    39    20    16   ar
    40     3     7    1
@<TRIPOS>MOLECULE
*****
 37 40 0 0 0
SMALL
GASTEIGER

@<TRIPOS>ATOM
      1 C         141.6874  141.4682  161.7885 C.2     1  UNL1        0.1397
      2 C         142.3316  141.7776  160.4697 C.2     1  UNL1        0.1355
      3 N         142.3800  140.7322  159.3951 N.pl3   1  UNL1       -0.1998
      4 C         141.7843  139.3775  159.6392 C.2     1  UNL1        0.3442
      5 N         141.1401  139.0681  160.9580 N.2     1  UNL1       -0.0580
      6 C         141.0917  140.1134  162.0326 C.3     1  UNL1        0.2692
      7 H         142.8029  140.9353  158.5295 H       1  UNL1        0.2983
      8 C         140.4474  139.8040  163.3515 C.ar    1  UNL1        0.0371
      9 C         141.2768  139.2823  164.4872 C.ar    1  UNL1        0.0030
     10 C         140.6326  138.9728  165.8060 C.ar    1  UNL1        0.0295
     11 C         139.1590  139.1851  165.9891 C.ar    1  UNL1        0.1406
     12 F         138.5148  138.8756  167.3079 F       1  UNL1       -0.2042
     13 C         138.3296  139.7068  164.8533 C.ar    1  UNL1        0.0362
     14 C         138.9739  140.0162  163.5345 C.ar    1  UNL1        0.0372
     15 BR        138.1445  140.5380  162.3987 Br      1  UNL1       -0.0491
     16 C         141.8327  138.3321  158.5645 C.ar    1  UNL1        0.1927
     17 N         142.9540  137.3651  158.3250 N.ar    1  UNL1       -0.2351
     18 C         142.5826  136.5055  157.1532 C.ar    1  UNL1        0.0775
     19 C         141.2317  136.9414  156.6684 C.ar    1  UNL1        0.0524
     20 S         140.7682  138.0702  157.5406 S.2     1  UNL1       -0.0590
     21 C         143.4159  135.4037  156.5687 C.3     1  UNL1        0.1556
     22 C         143.3346  134.0187  157.1391 C.2     1  UNL1        0.3232
     23 O         144.3432  133.5644  158.1522 O.2     1  UNL1       -0.2497
     24 O         142.2447  133.0881  156.6964 O.3     1  UNL1       -0.4441
     25 C         141.5889  133.2825  155.3612 C.3     1  UNL1        0.2556
     26 C         141.6390  142.5135  162.8632 C.2     1  UNL1        0.3447
     27 O         142.8505  142.7784  163.7070 O.2     1  UNL1       -0.2450
     28 O         140.3791  143.2941  163.0940 O.3     1  UNL1       -0.4455
     29 C         138.9861  144.7778  164.7090 C.3     1  UNL1        0.0513
     30 C         139.9764  143.6729  164.4884 C.3     1  UNL1        0.2089
     31 C         142.9275  143.1324  160.2255 C.3     1  UNL1        0.1405
     32 N         142.2361  144.1026  159.3141 N.3     1  UNL1       -0.2617
     33 C         142.7629  144.3365  157.9293 C.3     1  UNL1        0.1050
     34 C         142.0715  145.3068  157.0178 C.3     1  UNL1        0.1595
     35 O         140.8534  146.0430  157.4912 O.3     1  UNL1       -0.3508
     36 C         140.3266  145.8090  158.8761 C.3     1  UNL1        0.1595
     37 C         141.0179  144.8388  159.7875 C.3     1  UNL1        0.1050
@<TRIPOS>BOND
     1    29    30    1
     2    30    28    1
     3    28    26    1
     4    26    27    2
     5    26     1    1
     6     1     2    2
     7     2    31    1
     8    31    32    1
     9    32    33    1
    10    33    34    1
    11    34    35    1
    12    35    36    1
    13    36    37    1
    14     2     3    1
    15     3     4    1
    16     4    16    1
    17    16    17   ar
    18    17    18   ar
    19    18    21    1
    20    21    22    1
    21    22    23    2
    22    22    24    1
    23    24    25    1
    24    18    19   ar
    25    19    20   ar
    26     4     5    2
    27     5     6    1
    28     6     8    1
    29     8     9   ar
    30     9    10   ar
    31    10    11   ar
    32    11    12    1
    33    11    13   ar
    34    13    14   ar
    35    14    15    1
    36     6     1    1
    37    14     8   ar
    38    37    32    1
    39    20    16   ar
    40     3     7    1
@<TRIPOS>MOLECULE
*****
 37 40 0 0 0
SMALL
GASTEIGER

@<TRIPOS>ATOM
      1 C         141.6033  141.5015  161.6116 C.2     1  UNL1        0.1397
      2 C         142.2881  141.7894  160.3085 C.2     1  UNL1        0.1355
      3 N         142.3699  140.7265  159.2533 N.pl3   1  UNL1       -0.1998
      4 C         141.7667  139.3756  159.5011 C.2     1  UNL1        0.3442
      5 N         141.0819  139.0878  160.8042 N.2     1  UNL1       -0.0580
      6 C         141.0002  140.1507  161.8594 C.3     1  UNL1        0.2692
      7 H         142.8194  140.9154  158.3980 H       1  UNL1        0.2983
      8 C         140.3153  139.8627  163.1625 C.ar    1  UNL1        0.0371
      9 C         138.8764  140.2412  163.3532 C.ar    1  UNL1        0.0030
     10 C         138.1915  139.9532  164.6563 C.ar    1  UNL1        0.0295
     11 C         138.9455  139.2869  165.7687 C.ar    1  UNL1        0.1406
     12 F         138.2606  138.9990  167.0718 F       1  UNL1       -0.2042
     13 C         140.3844  138.9085  165.5781 C.ar    1  UNL1        0.0362
     14 C         141.0693  139.1964  164.2749 C.ar    1  UNL1        0.0372
     15 BR        142.5082  138.8180  164.0842 Br      1  UNL1       -0.0491
     16 C         141.8484  138.3127  158.4459 C.ar    1  UNL1        0.1927
     17 N         142.9833  137.3520  158.2481 N.ar    1  UNL1       -0.2351
     18 C         142.6459  136.4694  157.0832 C.ar    1  UNL1        0.0775
     19 C         141.3025  136.8846  156.5609 C.ar    1  UNL1        0.0524
     20 S         140.8096  138.0238  157.4031 S.2     1  UNL1       -0.0590
     21 C         143.5017  135.3654  156.5365 C.3     1  UNL1        0.1556
     22 C         143.3951  133.9818  157.1059 C.2     1  UNL1        0.3232
     23 O         142.3192  133.0538  156.6252 O.2     1  UNL1       -0.2497
     24 O         144.3645  133.5263  158.1560 O.3     1  UNL1       -0.4441
     25 C         145.1829  132.2887  157.9350 C.3     1  UNL1        0.2556
     26 C         141.5216  142.5644  162.6668 C.2     1  UNL1        0.3447
     27 O         140.3580  143.5108  162.6896 O.2     1  UNL1       -0.2450
     28 O         142.6034  142.6810  163.6992 O.3     1  UNL1       -0.4455
     29 C         143.2638  142.0431  166.1297 C.3     1  UNL1        0.0513
     30 C         142.2618  142.5908  165.1570 C.3     1  UNL1        0.2089
     31 C         142.8913  143.1403  160.0606 C.3     1  UNL1        0.1405
     32 N         142.2266  144.0964  159.1151 N.3     1  UNL1       -0.2617
     33 C         141.0269  144.8791  159.5601 C.3     1  UNL1        0.1050
     34 C         140.3622  145.8352  158.6145 C.3     1  UNL1        0.1595
     35 O         140.8972  146.0086  157.2240 O.3     1  UNL1       -0.3508
     36 C         142.0969  145.2258  156.7789 C.3     1  UNL1        0.1595
     37 C         142.7616  144.2697  157.7244 C.3     1  UNL1        0.1050
@<TRIPOS>BOND
     1    29    30    1
     2    30    28    1
     3    28    26    1
     4    26    27    2
     5    26     1    1
     6     1     2    2
     7     2    31    1
     8    31    32    1
     9    32    33    1
    10    33    34    1
    11    34    35    1
    12    35    36    1
    13    36    37    1
    14     2     3    1
    15     3     4    1
    16     4    16    1
    17    16    17   ar
    18    17    18   ar
    19    18    21    1
    20    21    22    1
    21    22    23    2
    22    22    24    1
    23    24    25    1
    24    18    19   ar
    25    19    20   ar
    26     4     5    2
    27     5     6    1
    28     6     8    1
    29     8     9   ar
    30     9    10   ar
    31    10    11   ar
    32    11    12    1
    33    11    13   ar
    34    13    14   ar
    35    14    15    1
    36     6     1    1
    37    14     8   ar
    38    37    32    1
    39    20    16   ar
    40     3     7    1
@<TRIPOS>MOLECULE
*****
 37 40 0 0 0
SMALL
GASTEIGER

@<TRIPOS>ATOM
      1 C         141.0805  140.8966  161.5659 C.2     1  UNL1        0.1397
      2 C         141.5191  141.5437  160.2857 C.2     1  UNL1        0.1355
      3 N         140.5408  141.7250  159.1633 N.pl3   1  UNL1       -0.1998
      4 C         139.1237  141.2593  159.3210 C.2     1  UNL1        0.3442
      5 N         138.6850  140.6122  160.6011 N.2     1  UNL1       -0.0580
      6 C         139.6634  140.4308  161.7236 C.3     1  UNL1        0.2692
      7 H         140.8287  142.1497  158.3231 H       1  UNL1        0.2983
      8 C         139.2246  139.7837  163.0037 C.ar    1  UNL1        0.0371
      9 C         139.3783  138.3029  163.1866 C.ar    1  UNL1        0.0030
     10 C         138.9396  137.6557  164.4667 C.ar    1  UNL1        0.0295
     11 C         138.3472  138.4894  165.5640 C.ar    1  UNL1        0.1406
     12 F         137.9085  137.8423  166.8441 F       1  UNL1       -0.2042
     13 C         138.1935  139.9703  165.3811 C.ar    1  UNL1        0.0362
     14 C         138.6322  140.6174  164.1010 C.ar    1  UNL1        0.0372
     15 BR        138.4785  142.0983  163.9181 Br      1  UNL1       -0.0491
     16 C         138.1453  141.4406  158.1986 C.ar    1  UNL1        0.1927
     17 N         137.2083  140.3962  157.6683 N.ar    1  UNL1       -0.2351
     18 C         136.4160  141.0083  156.5513 C.ar    1  UNL1        0.0775
     19 C         136.8633  142.4311  156.3913 C.ar    1  UNL1        0.0524
     20 S         137.9320  142.6982  157.4093 S.2     1  UNL1       -0.0590
     21 C         135.3615  140.3187  155.7373 C.3     1  UNL1        0.1556
     22 C         134.0280  140.0053  156.3484 C.2     1  UNL1        0.3232
     23 O         133.8598  138.7766  157.1923 O.2     1  UNL1       -0.2497
     24 O         132.8626  140.9205  156.1154 O.3     1  UNL1       -0.4441
     25 C         131.4696  140.4526  156.4171 C.3     1  UNL1        0.2556
     26 C         142.0589  140.7152  162.6883 C.2     1  UNL1        0.3447
     27 O         142.2842  141.8238  163.6732 O.2     1  UNL1       -0.2450
     28 O         142.8119  139.4253  162.8258 O.3     1  UNL1       -0.4455
     29 C         142.4917  138.6418  165.2821 C.3     1  UNL1        0.0513
     30 C         143.3955  139.0351  164.1514 C.3     1  UNL1        0.2089
     31 C         142.9363  142.0095  160.1280 C.3     1  UNL1        0.1405
     32 N         143.7160  141.6372  158.9019 N.3     1  UNL1       -0.2617
     33 C         143.3914  140.3736  158.1616 C.3     1  UNL1        0.1050
     34 C         144.1713  140.0014  156.9354 C.3     1  UNL1        0.1595
     35 O         145.2756  140.8926  156.4496 O.3     1  UNL1       -0.3508
     36 C         145.6002  142.1562  157.1900 C.3     1  UNL1        0.1595
     37 C         144.8205  142.5284  158.4160 C.3     1  UNL1        0.1050
@<TRIPOS>BOND
     1    29    30    1
     2    30    28    1
     3    28    26    1
     4    26    27    2
     5    26     1    1
     6     1     2    2
     7     2    31    1
     8    31    32    1
     9    32    33    1
    10    33    34    1
    11    34    35    1
    12    35    36    1
    13    36    37    1
    14     2     3    1
    15     3     4    1
    16     4    16    1
    17    16    17   ar
    18    17    18   ar
    19    18    21    1
    20    21    22    1
    21    22    23    2
    22    22    24    1
    23    24    25    1
    24    18    19   ar
    25    19    20   ar
    26     4     5    2
    27     5     6    1
    28     6     8    1
    29     8     9   ar
    30     9    10   ar
    31    10    11   ar
    32    11    12    1
    33    11    13   ar
    34    13    14   ar
    35    14    15    1
    36     6     1    1
    37    14     8   ar
    38    37    32    1
    39    20    16   ar
    40     3     7    1
