@<TRIPOS>MOLECULE
*****
 30 34 0 0 0
SMALL
GASTEIGER

@<TRIPOS>ATOM
      1 C         140.9709  143.8752  162.5839 C.2     1  UNL1        0.0919
      2 C         139.9412  144.8557  163.0619 C.2     1  UNL1        0.1174
      3 CL        139.4158  144.7676  164.4642 Cl      1  UNL1       -0.0771
      4 C         139.4369  145.9241  162.1378 C.2     1  UNL1        0.2480
      5 N         139.9623  146.0122  160.7355 N.2     1  UNL1       -0.0300
      6 C         140.9920  145.0317  160.2575 C.2     1  UNL1        0.4032
      7 N         141.6901  144.8719  158.9395 N.2     1  UNL1        0.0326
      8 C         142.6258  143.7047  159.0491 C.cat   1  UNL1        0.4596
      9 N         142.5060  143.1431  160.4349 N.2     1  UNL1       -0.0725
     10 C         141.4963  143.9633  161.1817 C.3     1  UNL1        0.3276
     11 N         143.5236  143.1895  157.9636 N.pl3   1  UNL1       -0.1832
     12 C         143.0901  143.2711  156.5299 C.3     1  UNL1        0.1857
     13 C         143.9881  142.7558  155.4444 C.3     1  UNL1        0.1133
     14 N         145.3194  142.1589  155.7925 N.3     1  UNL1       -0.2660
     15 C         146.2173  141.6437  154.7070 C.3     1  UNL1        0.0898
     16 C         145.7529  142.0773  157.2262 C.3     1  UNL1        0.1133
     17 C         144.8550  142.5926  158.3117 C.3     1  UNL1        0.1857
     18 N         142.4837  140.6699  165.3565 N.3     1  UNL1       -0.2646
     19 C         143.1077  142.0339  165.3755 C.3     1  UNL1        0.0941
     20 C         142.6035  143.1023  164.4514 C.3     1  UNL1        0.1080
     21 N         141.4751  142.8068  163.5081 N.pl3   1  UNL1       -0.3041
     22 C         140.8512  141.4429  163.4891 C.3     1  UNL1        0.1080
     23 C         141.3555  140.3745  164.4133 C.3     1  UNL1        0.0941
     24 C         142.9880  139.6016  166.2807 C.3     1  UNL1        0.1222
     25 C         139.9231  140.1919  170.5397 C.3     1  UNL1        0.0754
     26 C         141.0505  139.7820  169.6392 C.ar    1  UNL1        0.1546
     27 C         141.1855  140.1226  168.1846 C.ar    1  UNL1        0.0550
     28 C         142.4592  139.5107  167.6815 C.ar    1  UNL1        0.1165
     29 N         143.1114  138.7918  168.8252 N.ar    1  UNL1       -0.0803
     30 O         142.2407  138.9595  170.0350 O.2     1  UNL1       -0.3580
@<TRIPOS>BOND
     1    25    26    1
     2    26    27   ar
     3    27    28   ar
     4    28    24    1
     5    24    18    1
     6    18    19    1
     7    19    20    1
     8    20    21    1
     9    21     1    1
    10     1     2    2
    11     2     3    1
    12     2     4    1
    13     4     5    2
    14     5     6    1
    15     6     7    2
    16     7     8    1
    17     8    11    1
    18    11    12    1
    19    12    13    1
    20    13    14    1
    21    14    15    1
    22    14    16    1
    23    16    17    1
    24     8     9    2
    25     9    10    1
    26    21    22    1
    27    22    23    1
    28    28    29   ar
    29    29    30   ar
    30    30    26   ar
    31    23    18    1
    32    10     1    1
    33    10     6    1
    34    17    11    1
@<TRIPOS>MOLECULE
*****
 30 34 0 0 0
SMALL
GASTEIGER

@<TRIPOS>ATOM
      1 C         143.6836  140.5328  160.3627 C.2     1  UNL1        0.0919
      2 C         144.1528  141.9483  160.2012 C.2     1  UNL1        0.1174
      3 CL        144.3619  142.8116  161.4100 Cl      1  UNL1       -0.0771
      4 C         144.4129  142.5005  158.8311 C.2     1  UNL1        0.2480
      5 N         144.2038  141.6372  157.6224 N.2     1  UNL1       -0.0300
      6 C         143.7345  140.2217  157.7839 C.2     1  UNL1        0.4032
      7 N         143.4424  139.1411  156.7854 N.2     1  UNL1        0.0326
      8 C         143.0018  137.9210  157.5385 C.cat   1  UNL1        0.4596
      9 N         143.0216  138.2476  159.0024 N.2     1  UNL1       -0.0725
     10 C         143.4744  139.6695  159.1541 C.3     1  UNL1        0.3276
     11 N         142.6101  136.6053  156.9339 N.pl3   1  UNL1       -0.1832
     12 C         141.5379  136.5508  155.8864 C.3     1  UNL1        0.1857
     13 C         141.1463  135.2350  155.2818 C.3     1  UNL1        0.1133
     14 N         141.8268  133.9738  155.7248 N.3     1  UNL1       -0.2660
     15 C         141.4352  132.6581  155.1202 C.3     1  UNL1        0.0898
     16 C         142.8990  134.0283  156.7724 C.3     1  UNL1        0.1133
     17 C         143.2906  135.3441  157.3769 C.3     1  UNL1        0.1857
     18 N         142.9034  138.8762  164.4734 N.3     1  UNL1       -0.2646
     19 C         144.3116  139.1202  164.0179 C.3     1  UNL1        0.0941
     20 C         144.5717  139.6724  162.6478 C.3     1  UNL1        0.1080
     21 N         143.4235  139.9806  161.7329 N.pl3   1  UNL1       -0.3041
     22 C         142.0153  139.7366  162.1883 C.3     1  UNL1        0.1080
     23 C         141.7553  139.1844  163.5586 C.3     1  UNL1        0.0941
     24 C         142.6433  138.3240  165.8435 C.3     1  UNL1        0.1222
     25 C         142.5575  142.5980  168.9430 C.3     1  UNL1        0.0754
     26 C         142.7037  141.1826  168.4686 C.ar    1  UNL1        0.1546
     27 C         142.4895  140.6963  167.0658 C.ar    1  UNL1        0.0550
     28 C         142.7431  139.2181  167.0439 C.ar    1  UNL1        0.1165
     29 N         143.1140  138.7907  168.4331 N.ar    1  UNL1       -0.0803
     30 O         143.0896  140.0049  169.3135 O.2     1  UNL1       -0.3580
@<TRIPOS>BOND
     1    25    26    1
     2    26    27   ar
     3    27    28   ar
     4    28    24    1
     5    24    18    1
     6    18    19    1
     7    19    20    1
     8    20    21    1
     9    21     1    1
    10     1     2    2
    11     2     3    1
    12     2     4    1
    13     4     5    2
    14     5     6    1
    15     6     7    2
    16     7     8    1
    17     8    11    1
    18    11    12    1
    19    12    13    1
    20    13    14    1
    21    14    15    1
    22    14    16    1
    23    16    17    1
    24     8     9    2
    25     9    10    1
    26    21    22    1
    27    22    23    1
    28    28    29   ar
    29    29    30   ar
    30    30    26   ar
    31    23    18    1
    32    10     1    1
    33    10     6    1
    34    17    11    1
@<TRIPOS>MOLECULE
*****
 30 34 0 0 0
SMALL
GASTEIGER

@<TRIPOS>ATOM
      1 C         142.3741  140.2223  160.6676 C.2     1  UNL1        0.0919
      2 C         143.0890  141.5315  160.8257 C.2     1  UNL1        0.1174
      3 CL        142.8708  142.3613  162.0561 Cl      1  UNL1       -0.0771
      4 C         144.0219  142.0108  159.7535 C.2     1  UNL1        0.2480
      5 N         144.2401  141.1810  158.5231 N.2     1  UNL1       -0.0300
      6 C         143.5253  139.8718  158.3650 C.2     1  UNL1        0.4032
      7 N         143.5409  138.8455  157.2712 N.2     1  UNL1        0.0326
      8 C         142.6175  137.7318  157.6675 C.cat   1  UNL1        0.4596
      9 N         142.0312  138.0698  159.0062 N.2     1  UNL1       -0.0725
     10 C         142.5922  139.3925  159.4372 C.3     1  UNL1        0.3276
     11 N         142.3307  136.4968  156.8659 N.pl3   1  UNL1       -0.1832
     12 C         141.2634  136.5177  155.8122 C.3     1  UNL1        0.1857
     13 C         140.9766  135.2826  155.0106 C.3     1  UNL1        0.1133
     14 N         141.7572  134.0268  155.2627 N.3     1  UNL1       -0.2660
     15 C         141.4704  132.7918  154.4611 C.3     1  UNL1        0.0898
     16 C         142.8245  134.0059  156.3164 C.3     1  UNL1        0.1133
     17 C         143.1112  135.2409  157.1180 C.3     1  UNL1        0.1857
     18 N         139.5751  138.7842  163.8844 N.3     1  UNL1       -0.2646
     19 C         140.9714  138.2414  163.8073 C.3     1  UNL1        0.0941
     20 C         141.9043  138.7207  162.7351 C.3     1  UNL1        0.1080
     21 N         141.4411  139.7430  161.7398 N.pl3   1  UNL1       -0.3041
     22 C         140.0449  140.2859  161.8169 C.3     1  UNL1        0.1080
     23 C         139.1120  139.8065  162.8892 C.3     1  UNL1        0.0941
     24 C         138.6422  138.3049  164.9566 C.3     1  UNL1        0.1222
     25 C         140.2223  141.1250  169.1318 C.3     1  UNL1        0.0754
     26 C         139.4561  140.1763  168.2584 C.ar    1  UNL1        0.1546
     27 C         139.7384  139.8835  166.8145 C.ar    1  UNL1        0.0550
     28 C         138.7298  138.8801  166.3393 C.ar    1  UNL1        0.1165
     29 N         137.8242  138.5527  167.4894 N.ar    1  UNL1       -0.0803
     30 O         138.2731  139.3538  168.6754 O.2     1  UNL1       -0.3580
@<TRIPOS>BOND
     1    25    26    1
     2    26    27   ar
     3    27    28   ar
     4    28    24    1
     5    24    18    1
     6    18    19    1
     7    19    20    1
     8    20    21    1
     9    21     1    1
    10     1     2    2
    11     2     3    1
    12     2     4    1
    13     4     5    2
    14     5     6    1
    15     6     7    2
    16     7     8    1
    17     8    11    1
    18    11    12    1
    19    12    13    1
    20    13    14    1
    21    14    15    1
    22    14    16    1
    23    16    17    1
    24     8     9    2
    25     9    10    1
    26    21    22    1
    27    22    23    1
    28    28    29   ar
    29    29    30   ar
    30    30    26   ar
    31    23    18    1
    32    10     1    1
    33    10     6    1
    34    17    11    1
@<TRIPOS>MOLECULE
*****
 30 34 0 0 0
SMALL
GASTEIGER

@<TRIPOS>ATOM
      1 C         142.1669  138.7466  158.1703 C.2     1  UNL1        0.0919
      2 C         142.3727  140.1501  157.6828 C.2     1  UNL1        0.1174
      3 CL        141.7371  141.2976  158.4105 Cl      1  UNL1       -0.0771
      4 C         143.2139  140.4063  156.4677 C.2     1  UNL1        0.2480
      5 N         143.8495  139.2589  155.7399 N.2     1  UNL1       -0.0300
      6 C         143.6437  137.8553  156.2274 C.2     1  UNL1        0.4032
      7 N         144.1396  136.5338  155.7200 N.2     1  UNL1        0.0326
      8 C         143.6048  135.4608  156.6215 C.cat   1  UNL1        0.4596
      9 N         142.7784  136.1193  157.6862 N.2     1  UNL1       -0.0725
     10 C         142.8024  137.5992  157.4426 C.3     1  UNL1        0.3276
     11 N         143.8529  133.9880  156.4829 N.pl3   1  UNL1       -0.1832
     12 C         144.4833  133.2243  157.6095 C.3     1  UNL1        0.1857
     13 C         144.7313  131.7514  157.4707 C.3     1  UNL1        0.1133
     14 N         144.3491  131.0423  156.2054 N.3     1  UNL1       -0.2660
     15 C         144.5972  129.5695  156.0667 C.3     1  UNL1        0.0898
     16 C         143.7188  131.8061  155.0788 C.3     1  UNL1        0.1133
     17 C         143.4707  133.2789  155.2175 C.3     1  UNL1        0.1857
     18 N         139.6430  137.9782  161.8158 N.3     1  UNL1       -0.2646
     19 C         141.1386  137.9130  161.9116 C.3     1  UNL1        0.0941
     20 C         141.9798  138.1691  160.6965 C.3     1  UNL1        0.1080
     21 N         141.3256  138.4905  159.3854 N.pl3   1  UNL1       -0.3041
     22 C         139.8301  138.5556  159.2896 C.3     1  UNL1        0.1080
     23 C         138.9888  138.2995  160.5048 C.3     1  UNL1        0.0941
     24 C         138.8018  137.7220  163.0309 C.3     1  UNL1        0.1222
     25 C         139.2805  139.8792  167.8267 C.3     1  UNL1        0.0754
     26 C         139.0099  139.7041  166.3617 C.ar    1  UNL1        0.1546
     27 C         139.1686  138.4327  165.5815 C.ar    1  UNL1        0.0550
     28 C         138.7899  138.7126  164.1574 C.ar    1  UNL1        0.1165
     29 N         138.3972  140.1568  164.0573 N.ar    1  UNL1       -0.0803
     30 O         138.5332  140.7696  165.4196 O.2     1  UNL1       -0.3580
@<TRIPOS>BOND
     1    25    26    1
     2    26    27   ar
     3    27    28   ar
     4    28    24    1
     5    24    18    1
     6    18    19    1
     7    19    20    1
     8    20    21    1
     9    21     1    1
    10     1     2    2
    11     2     3    1
    12     2     4    1
    13     4     5    2
    14     5     6    1
    15     6     7    2
    16     7     8    1
    17     8    11    1
    18    11    12    1
    19    12    13    1
    20    13    14    1
    21    14    15    1
    22    14    16    1
    23    16    17    1
    24     8     9    2
    25     9    10    1
    26    21    22    1
    27    22    23    1
    28    28    29   ar
    29    29    30   ar
    30    30    26   ar
    31    23    18    1
    32    10     1    1
    33    10     6    1
    34    17    11    1
@<TRIPOS>MOLECULE
*****
 30 34 0 0 0
SMALL
GASTEIGER

@<TRIPOS>ATOM
      1 C         142.5907  138.4900  157.9746 C.2     1  UNL1        0.0919
      2 C         143.1814  139.8282  157.6428 C.2     1  UNL1        0.1174
      3 CL        142.8318  141.0286  158.4716 Cl      1  UNL1       -0.0771
      4 C         144.1216  139.9660  156.4823 C.2     1  UNL1        0.2480
      5 N         144.4713  138.7655  155.6536 N.2     1  UNL1       -0.0300
      6 C         143.8805  137.4273  155.9854 C.2     1  UNL1        0.4032
      7 N         144.0387  136.0760  155.3539 N.2     1  UNL1        0.0326
      8 C         143.1961  135.1030  156.1242 C.cat   1  UNL1        0.4596
      9 N         142.5172  135.8530  157.2317 N.2     1  UNL1       -0.0725
     10 C         142.9402  137.2895  157.1460 C.3     1  UNL1        0.3276
     11 N         143.0568  133.6372  155.8374 N.pl3   1  UNL1       -0.1832
     12 C         141.7199  133.0702  155.4618 C.3     1  UNL1        0.1857
     13 C         141.5807  131.6045  155.1749 C.3     1  UNL1        0.1133
     14 N         142.7784  130.7058  155.2637 N.3     1  UNL1       -0.2660
     15 C         142.6391  129.2400  154.9768 C.3     1  UNL1        0.0898
     16 C         144.1153  131.2728  155.6393 C.3     1  UNL1        0.1133
     17 C         144.2545  132.7385  155.9261 C.3     1  UNL1        0.1857
     18 N         139.7697  138.0766  161.4563 N.3     1  UNL1       -0.2646
     19 C         139.2344  138.3888  160.0902 C.3     1  UNL1        0.0941
     20 C         140.1747  138.5266  158.9297 C.3     1  UNL1        0.1080
     21 N         141.6504  138.3522  159.1352 N.pl3   1  UNL1       -0.3041
     22 C         142.1856  138.0399  160.5012 C.3     1  UNL1        0.1080
     23 C         141.2452  137.9022  161.6617 C.3     1  UNL1        0.0941
     24 C         138.8294  137.9388  162.6167 C.3     1  UNL1        0.1222
     25 C         137.7995  142.8183  164.3521 C.3     1  UNL1        0.0754
     26 C         138.1072  141.3505  164.3210 C.ar    1  UNL1        0.1546
     27 C         138.2879  140.5134  163.0894 C.ar    1  UNL1        0.0550
     28 C         138.5805  139.1077  163.5233 C.ar    1  UNL1        0.1165
     29 N         138.5806  139.0760  165.0230 N.ar    1  UNL1       -0.0803
     30 O         138.2881  140.4621  165.5160 O.2     1  UNL1       -0.3580
@<TRIPOS>BOND
     1    25    26    1
     2    26    27   ar
     3    27    28   ar
     4    28    24    1
     5    24    18    1
     6    18    19    1
     7    19    20    1
     8    20    21    1
     9    21     1    1
    10     1     2    2
    11     2     3    1
    12     2     4    1
    13     4     5    2
    14     5     6    1
    15     6     7    2
    16     7     8    1
    17     8    11    1
    18    11    12    1
    19    12    13    1
    20    13    14    1
    21    14    15    1
    22    14    16    1
    23    16    17    1
    24     8     9    2
    25     9    10    1
    26    21    22    1
    27    22    23    1
    28    28    29   ar
    29    29    30   ar
    30    30    26   ar
    31    23    18    1
    32    10     1    1
    33    10     6    1
    34    17    11    1
@<TRIPOS>MOLECULE
*****
 30 34 0 0 0
SMALL
GASTEIGER

@<TRIPOS>ATOM
      1 C         140.7638  143.1242  161.8342 C.2     1  UNL1        0.0919
      2 C         140.4037  144.5790  161.8984 C.2     1  UNL1        0.1174
      3 CL        139.9080  145.1728  163.1836 Cl      1  UNL1       -0.0771
      4 C         140.5394  145.4397  160.6776 C.2     1  UNL1        0.2480
      5 N         141.0351  144.8459  159.3924 N.2     1  UNL1       -0.0300
      6 C         141.3952  143.3912  159.3282 C.2     1  UNL1        0.4032
      7 N         141.9070  142.5324  158.2100 N.2     1  UNL1        0.0326
      8 C         142.0877  141.1407  158.7398 C.cat   1  UNL1        0.4596
      9 N         141.6876  141.1395  160.1854 N.2     1  UNL1       -0.0725
     10 C         141.2595  142.5304  160.5491 C.3     1  UNL1        0.3276
     11 N         142.5818  139.9579  157.9607 N.pl3   1  UNL1       -0.1832
     12 C         143.4209  140.1648  156.7347 C.3     1  UNL1        0.1857
     13 C         143.9149  138.9820  155.9557 C.3     1  UNL1        0.1133
     14 N         143.5700  137.5923  156.4027 N.3     1  UNL1       -0.2660
     15 C         144.0641  136.4095  155.6237 C.3     1  UNL1        0.0898
     16 C         142.7310  137.3854  157.6287 C.3     1  UNL1        0.1133
     17 C         142.2369  138.5683  158.4077 C.3     1  UNL1        0.1857
     18 N         140.3569  140.5418  165.4969 N.3     1  UNL1       -0.2646
     19 C         141.6790  141.1671  165.1632 C.3     1  UNL1        0.0941
     20 C         141.8146  142.0279  163.9423 C.3     1  UNL1        0.1080
     21 N         140.6282  142.2634  163.0551 N.pl3   1  UNL1       -0.3041
     22 C         139.3062  141.6381  163.3888 C.3     1  UNL1        0.1080
     23 C         139.1706  140.7773  164.6097 C.3     1  UNL1        0.0941
     24 C         140.2213  139.6810  166.7178 C.3     1  UNL1        0.1222
     25 C         139.8445  143.0147  170.7953 C.3     1  UNL1        0.0754
     26 C         139.6480  141.8263  169.9013 C.ar    1  UNL1        0.1546
     27 C         140.3020  141.6074  168.5692 C.ar    1  UNL1        0.0550
     28 C         139.8213  140.2941  168.0271 C.ar    1  UNL1        0.1165
     29 N         138.8702  139.7012  169.0242 N.ar    1  UNL1       -0.0803
     30 O         138.7632  140.6482  170.1825 O.2     1  UNL1       -0.3580
@<TRIPOS>BOND
     1    25    26    1
     2    26    27   ar
     3    27    28   ar
     4    28    24    1
     5    24    18    1
     6    18    19    1
     7    19    20    1
     8    20    21    1
     9    21     1    1
    10     1     2    2
    11     2     3    1
    12     2     4    1
    13     4     5    2
    14     5     6    1
    15     6     7    2
    16     7     8    1
    17     8    11    1
    18    11    12    1
    19    12    13    1
    20    13    14    1
    21    14    15    1
    22    14    16    1
    23    16    17    1
    24     8     9    2
    25     9    10    1
    26    21    22    1
    27    22    23    1
    28    28    29   ar
    29    29    30   ar
    30    30    26   ar
    31    23    18    1
    32    10     1    1
    33    10     6    1
    34    17    11    1
@<TRIPOS>MOLECULE
*****
 30 34 0 0 0
SMALL
GASTEIGER

@<TRIPOS>ATOM
      1 C         141.3613  143.6091  161.2889 C.2     1  UNL1        0.0919
      2 C         140.7192  144.9625  161.2124 C.2     1  UNL1        0.1174
      3 CL        140.5009  145.7608  162.4635 Cl      1  UNL1       -0.0771
      4 C         140.2954  145.5176  159.8850 C.2     1  UNL1        0.2480
      5 N         140.5137  144.7192  158.6339 N.2     1  UNL1       -0.0300
      6 C         141.1558  143.3658  158.7104 C.2     1  UNL1        0.4032
      7 N         141.4973  142.3558  157.6553 N.2     1  UNL1        0.0326
      8 C         142.1322  141.1765  158.3307 C.cat   1  UNL1        0.4596
      9 N         142.1831  141.4576  159.8033 N.2     1  UNL1       -0.0725
     10 C         141.5796  142.8107  160.0380 C.3     1  UNL1        0.3276
     11 N         142.6290  139.9342  157.6526 N.pl3   1  UNL1       -0.1832
     12 C         142.2596  138.5851  158.1945 C.3     1  UNL1        0.1857
     13 C         142.7564  137.3428  157.5164 C.3     1  UNL1        0.1133
     14 N         143.6226  137.4495  156.2964 N.3     1  UNL1       -0.2660
     15 C         144.1194  136.2071  155.6183 C.3     1  UNL1        0.0898
     16 C         143.9920  138.7985  155.7545 C.3     1  UNL1        0.1133
     17 C         143.4951  140.0408  156.4327 C.3     1  UNL1        0.1857
     18 N         142.6329  141.9438  165.2715 N.3     1  UNL1       -0.2646
     19 C         143.5575  142.8419  164.5042 C.3     1  UNL1        0.0941
     20 C         143.1337  143.3969  163.1768 C.3     1  UNL1        0.1080
     21 N         141.7851  143.0540  162.6164 N.pl3   1  UNL1       -0.3041
     22 C         140.8605  142.1560  163.3836 C.3     1  UNL1        0.1080
     23 C         141.2844  141.6009  164.7111 C.3     1  UNL1        0.0941
     24 C         143.0567  141.3888  166.5989 C.3     1  UNL1        0.1222
     25 C         140.1133  143.5104  170.4352 C.3     1  UNL1        0.0754
     26 C         141.2933  143.0540  169.6294 C.ar    1  UNL1        0.1546
     27 C         141.2379  142.3442  168.3090 C.ar    1  UNL1        0.0550
     28 C         142.6461  142.0788  167.8660 C.ar    1  UNL1        0.1165
     29 N         143.5719  142.6245  168.9126 N.ar    1  UNL1       -0.0803
     30 O         142.7358  143.2271  170.0023 O.2     1  UNL1       -0.3580
@<TRIPOS>BOND
     1    25    26    1
     2    26    27   ar
     3    27    28   ar
     4    28    24    1
     5    24    18    1
     6    18    19    1
     7    19    20    1
     8    20    21    1
     9    21     1    1
    10     1     2    2
    11     2     3    1
    12     2     4    1
    13     4     5    2
    14     5     6    1
    15     6     7    2
    16     7     8    1
    17     8    11    1
    18    11    12    1
    19    12    13    1
    20    13    14    1
    21    14    15    1
    22    14    16    1
    23    16    17    1
    24     8     9    2
    25     9    10    1
    26    21    22    1
    27    22    23    1
    28    28    29   ar
    29    29    30   ar
    30    30    26   ar
    31    23    18    1
    32    10     1    1
    33    10     6    1
    34    17    11    1
@<TRIPOS>MOLECULE
*****
 30 34 0 0 0
SMALL
GASTEIGER

@<TRIPOS>ATOM
      1 C         143.1287  140.0534  159.5421 C.2     1  UNL1        0.0919
      2 C         143.4074  141.4768  159.1597 C.2     1  UNL1        0.1174
      3 CL        143.4787  142.5375  160.2180 Cl      1  UNL1       -0.0771
      4 C         143.6147  141.8395  157.7191 C.2     1  UNL1        0.2480
      5 N         143.5434  140.7788  156.6608 N.2     1  UNL1       -0.0300
      6 C         143.2647  139.3554  157.0432 C.2     1  UNL1        0.4032
      7 N         143.1367  138.1035  156.2270 N.2     1  UNL1        0.0326
      8 C         142.8501  136.9671  157.1631 C.cat   1  UNL1        0.4596
      9 N         142.8011  137.5167  158.5580 N.2     1  UNL1       -0.0725
     10 C         143.0574  138.9927  158.4839 C.3     1  UNL1        0.3276
     11 N         142.6480  135.5329  156.7730 N.pl3   1  UNL1       -0.1832
     12 C         143.4023  134.4488  157.4841 C.3     1  UNL1        0.1857
     13 C         143.2001  133.0146  157.0939 C.3     1  UNL1        0.1133
     14 N         142.2438  132.6645  155.9926 N.3     1  UNL1       -0.2660
     15 C         142.0417  131.2303  155.6024 C.3     1  UNL1        0.0898
     16 C         141.4896  133.7486  155.2814 C.3     1  UNL1        0.1133
     17 C         141.6917  135.1829  155.6717 C.3     1  UNL1        0.1857
     18 N         142.5064  138.9654  163.8641 N.3     1  UNL1       -0.2646
     19 C         141.3246  139.2416  162.9825 C.3     1  UNL1        0.0941
     20 C         141.5320  139.6043  161.5419 C.3     1  UNL1        0.1080
     21 N         142.9213  139.6908  160.9828 N.pl3   1  UNL1       -0.3041
     22 C         144.1031  139.4145  161.8642 C.3     1  UNL1        0.1080
     23 C         143.8956  139.0518  163.3049 C.3     1  UNL1        0.0941
     24 C         142.2990  138.6027  165.3046 C.3     1  UNL1        0.1222
     25 C         141.0783  142.4477  168.7116 C.3     1  UNL1        0.0754
     26 C         140.9618  141.2856  167.7703 C.ar    1  UNL1        0.1546
     27 C         142.0914  140.6365  167.0268 C.ar    1  UNL1        0.0550
     28 C         141.5229  139.5183  166.2044 C.ar    1  UNL1        0.1165
     29 N         140.0420  139.4763  166.4395 N.ar    1  UNL1       -0.0803
     30 O         139.6952  140.5685  167.4073 O.2     1  UNL1       -0.3580
@<TRIPOS>BOND
     1    25    26    1
     2    26    27   ar
     3    27    28   ar
     4    28    24    1
     5    24    18    1
     6    18    19    1
     7    19    20    1
     8    20    21    1
     9    21     1    1
    10     1     2    2
    11     2     3    1
    12     2     4    1
    13     4     5    2
    14     5     6    1
    15     6     7    2
    16     7     8    1
    17     8    11    1
    18    11    12    1
    19    12    13    1
    20    13    14    1
    21    14    15    1
    22    14    16    1
    23    16    17    1
    24     8     9    2
    25     9    10    1
    26    21    22    1
    27    22    23    1
    28    28    29   ar
    29    29    30   ar
    30    30    26   ar
    31    23    18    1
    32    10     1    1
    33    10     6    1
    34    17    11    1
@<TRIPOS>MOLECULE
*****
 30 34 0 0 0
SMALL
GASTEIGER

@<TRIPOS>ATOM
      1 C         143.0002  141.5093  162.5868 C.2     1  UNL1        0.0919
      2 C         143.9445  142.6208  162.9370 C.2     1  UNL1        0.1174
      3 CL        143.9676  143.1741  164.3311 Cl      1  UNL1       -0.0771
      4 C         144.8657  143.1791  161.8932 C.2     1  UNL1        0.2480
      5 N         144.8427  142.6258  160.4991 N.2     1  UNL1       -0.0300
      6 C         143.8983  141.5143  160.1489 C.2     1  UNL1        0.4032
      7 N         143.6519  140.7727  158.8686 N.2     1  UNL1        0.0326
      8 C         142.5782  139.7560  159.1211 C.cat   1  UNL1        0.4596
      9 N         142.1612  139.8693  160.5575 N.2     1  UNL1       -0.0725
     10 C         142.9771  140.9560  161.1927 C.3     1  UNL1        0.3276
     11 N         142.0197  138.7948  158.1141 N.pl3   1  UNL1       -0.1832
     12 C         142.7661  137.5363  157.7841 C.3     1  UNL1        0.1857
     13 C         142.2075  136.5752  156.7771 C.3     1  UNL1        0.1133
     14 N         140.9024  136.8725  156.1000 N.3     1  UNL1       -0.2660
     15 C         140.3439  135.9113  155.0930 C.3     1  UNL1        0.0898
     16 C         140.1560  138.1310  156.4300 C.3     1  UNL1        0.1133
     17 C         140.7146  139.0922  157.4370 C.3     1  UNL1        0.1857
     18 N         140.2363  139.8345  165.7183 N.3     1  UNL1       -0.2646
     19 C         139.8492  141.0689  164.9590 C.3     1  UNL1        0.0941
     20 C         140.7705  141.6272  163.9152 C.3     1  UNL1        0.1080
     21 N         142.0789  140.9510  163.6306 N.pl3   1  UNL1       -0.3041
     22 C         142.4660  139.7166  164.3899 C.3     1  UNL1        0.1080
     23 C         141.5447  139.1584  165.4337 C.3     1  UNL1        0.0941
     24 C         139.3151  139.2763  166.7621 C.3     1  UNL1        0.1222
     25 C         140.2364  142.4643  170.8693 C.3     1  UNL1        0.0754
     26 C         139.6492  141.3939  169.9979 C.ar    1  UNL1        0.1546
     27 C         140.0809  141.0590  168.6008 C.ar    1  UNL1        0.0550
     28 C         139.2258  139.9285  168.1100 C.ar    1  UNL1        0.1165
     29 N         138.2658  139.5647  169.2036 N.ar    1  UNL1       -0.0803
     30 O         138.5275  140.4704  170.3704 O.2     1  UNL1       -0.3580
@<TRIPOS>BOND
     1    25    26    1
     2    26    27   ar
     3    27    28   ar
     4    28    24    1
     5    24    18    1
     6    18    19    1
     7    19    20    1
     8    20    21    1
     9    21     1    1
    10     1     2    2
    11     2     3    1
    12     2     4    1
    13     4     5    2
    14     5     6    1
    15     6     7    2
    16     7     8    1
    17     8    11    1
    18    11    12    1
    19    12    13    1
    20    13    14    1
    21    14    15    1
    22    14    16    1
    23    16    17    1
    24     8     9    2
    25     9    10    1
    26    21    22    1
    27    22    23    1
    28    28    29   ar
    29    29    30   ar
    30    30    26   ar
    31    23    18    1
    32    10     1    1
    33    10     6    1
    34    17    11    1
