@<TRIPOS>MOLECULE
*****
 40 46 0 0 0
SMALL
GASTEIGER

@<TRIPOS>ATOM
      1 C         138.5108  141.7033  164.4668 C.3     1  UNL1        0.0955
      2 C         138.8835  142.9910  165.1401 C.3     1  UNL1        0.0287
      3 C         138.8736  144.2739  164.3629 C.3     1  UNL1        0.0193
      4 C         138.4912  144.2692  162.9125 C.3     1  UNL1        0.0700
      5 C         138.1186  142.9816  162.2393 C.3     1  UNL1        0.0193
      6 C         138.1284  141.6986  163.0164 C.3     1  UNL1        0.0287
      7 C         138.4819  143.5411  163.2971 C.3     1  UNL1        0.1562
      8 O         138.4908  142.3811  163.9998 O.3     1  UNL1       -0.3571
      9 N         138.4813  145.5521  162.1353 N.3     1  UNL1       -0.2938
     10 H         138.0753  146.2624  162.7445 H       1  UNL1        0.1235
     11 C         139.7656  146.1182  161.6061 C.3     1  UNL1        0.0966
     12 C         140.8832  145.1995  161.2096 C.ar    1  UNL1        0.0083
     13 C         140.9077  144.5974  159.8360 C.ar    1  UNL1        0.0380
     14 C         142.0252  143.6788  159.4396 C.ar    1  UNL1        0.1730
     15 C         143.1183  143.3622  160.4168 C.ar    1  UNL1        0.1836
     16 C         143.0938  143.9643  161.7905 C.ar    1  UNL1        0.1048
     17 CL        144.1868  143.6478  162.7677 Cl      1  UNL1       -0.0781
     18 C         141.9762  144.8830  162.1869 C.ar    1  UNL1        0.0687
     19 CL        141.9518  145.4851  163.5606 Cl      1  UNL1       -0.0815
     20 O         144.2359  142.4435  160.0205 O.3     1  UNL1       -0.4675
     21 C         144.2603  141.8415  158.6467 C.3     1  UNL1        0.2527
     22 C         143.1672  142.1580  157.6696 C.3     1  UNL1        0.2526
     23 O         142.0496  143.0767  158.0660 O.3     1  UNL1       -0.4684
     24 C         138.5207  140.4204  165.2440 C.3     1  UNL1        0.0604
     25 O         138.8663  140.9376  170.3328 O.2     1  UNL1       -0.2670
     26 C         140.0831  140.3042  169.7261 C.ar    1  UNL1        0.2611
     27 C         141.2321  139.8978  170.6005 C.ar    1  UNL1        0.0623
     28 C         142.4489  139.2644  169.9938 C.ar    1  UNL1        0.0254
     29 C         142.5168  139.0373  168.5127 C.ar    1  UNL1        0.0972
     30 N         143.5906  138.4342  167.6446 N.ar    1  UNL1       -0.2400
     31 C         143.5153  138.2711  166.1554 C.ar    1  UNL1        0.1282
     32 C         142.2950  138.7272  165.4118 C.ar    1  UNL1        0.1588
     33 F         142.2197  138.5641  163.9226 F       1  UNL1       -0.2027
     34 C         141.1501  139.3463  166.1573 C.ar    1  UNL1        0.0500
     35 C         141.3678  139.4436  167.6382 C.ar    1  UNL1        0.0806
     36 N         140.1510  140.0771  168.2450 N.ar    1  UNL1       -0.2915
     37 C         139.1813  140.3713  167.1390 C.3     1  UNL1        0.1402
     38 C         139.7988  139.9196  165.8487 C.3     1  UNL1        0.1335
     39 O         140.1491  139.5727  164.4321 O.3     1  UNL1       -0.3806
     40 H         139.4186  139.8271  163.8468 H       1  UNL1        0.2108
@<TRIPOS>BOND
     1    25    26    2
     2    26    27   ar
     3    27    28   ar
     4    28    29   ar
     5    29    30   ar
     6    30    31   ar
     7    31    32   ar
     8    32    33    1
     9    32    34   ar
    10    34    35   ar
    11    35    36   ar
    12    36    37    1
    13    37    38    1
    14    38    39    1
    15    38    24    1
    16    24     1    1
    17     1     2    1
    18     2     3    1
    19     3     4    1
    20     4     9    1
    21     9    11    1
    22    11    12    1
    23    12    13   ar
    24    13    14   ar
    25    14    15   ar
    26    15    16   ar
    27    16    17    1
    28    16    18   ar
    29    18    19    1
    30    15    20    1
    31    20    21    1
    32    21    22    1
    33    22    23    1
    34     4     5    1
    35     5     6    1
    36     4     7    1
    37     7     8    1
    38    36    26   ar
    39     6     1    1
    40    35    29   ar
    41     8     1    1
    42    38    34    1
    43    18    12   ar
    44    23    14    1
    45    39    40    1
    46     9    10    1
@<TRIPOS>MOLECULE
*****
 40 46 0 0 0
SMALL
GASTEIGER

@<TRIPOS>ATOM
      1 C         138.2205  141.7693  164.5908 C.3     1  UNL1        0.0955
      2 C         139.1247  142.7243  165.3124 C.3     1  UNL1        0.0287
      3 C         139.9990  142.2321  166.4274 C.3     1  UNL1        0.0193
      4 C         139.9693  140.7849  166.8208 C.3     1  UNL1        0.0700
      5 C         139.0652  139.8300  166.0992 C.3     1  UNL1        0.0193
      6 C         138.1908  140.3222  164.9842 C.3     1  UNL1        0.0287
      7 C         139.4720  141.0079  166.2034 C.3     1  UNL1        0.1562
      8 O         138.6815  141.4530  165.1953 O.3     1  UNL1       -0.3571
      9 N         140.8436  140.2926  167.9358 N.3     1  UNL1       -0.2938
     10 H         140.3807  139.4757  168.3342 H       1  UNL1        0.1235
     11 C         142.2621  139.8930  167.6559 C.3     1  UNL1        0.0966
     12 C         142.8186  140.0243  166.2691 C.ar    1  UNL1        0.0083
     13 C         142.6895  138.8881  165.2984 C.ar    1  UNL1        0.0380
     14 C         143.2460  139.0194  163.9117 C.ar    1  UNL1        0.1730
     15 C         143.9316  140.2870  163.4956 C.ar    1  UNL1        0.1836
     16 C         144.0607  141.4233  164.4663 C.ar    1  UNL1        0.1048
     17 CL        144.7462  142.6909  164.0503 Cl      1  UNL1       -0.0781
     18 C         143.5041  141.2919  165.8531 C.ar    1  UNL1        0.0687
     19 CL        143.6333  142.4283  166.8237 Cl      1  UNL1       -0.0815
     20 O         144.4881  140.4184  162.1089 O.3     1  UNL1       -0.4675
     21 C         144.3590  139.2820  161.1382 C.3     1  UNL1        0.2527
     22 C         143.6735  138.0145  161.5543 C.3     1  UNL1        0.2526
     23 O         143.1169  137.8831  162.9411 O.3     1  UNL1       -0.4684
     24 C         137.3462  142.2616  163.4758 C.3     1  UNL1        0.0604
     25 O         140.2623  146.1762  161.9091 O.2     1  UNL1       -0.2670
     26 C         140.0446  145.1459  160.8409 C.ar    1  UNL1        0.2611
     27 C         140.6583  145.3305  159.4847 C.ar    1  UNL1        0.0623
     28 C         140.4405  144.3002  158.4164 C.ar    1  UNL1        0.0254
     29 C         139.6092  143.0854  158.7044 C.ar    1  UNL1        0.0972
     30 N         139.2287  141.9101  157.8416 N.ar    1  UNL1       -0.2400
     31 C         138.3780  140.7530  158.2743 C.ar    1  UNL1        0.1282
     32 C         137.8310  140.7050  159.6702 C.ar    1  UNL1        0.1588
     33 F         136.9803  139.5478  160.1029 F       1  UNL1       -0.2027
     34 C         138.1348  141.8141  160.6333 C.ar    1  UNL1        0.0500
     35 C         138.9955  142.9008  160.0606 C.ar    1  UNL1        0.0806
     36 N         139.2132  143.9311  161.1288 N.ar    1  UNL1       -0.2915
     37 C         138.4870  143.4811  162.3618 C.3     1  UNL1        0.1402
     38 C         137.8205  142.1726  162.0555 C.3     1  UNL1        0.1335
     39 O         137.0548  140.8828  162.0462 O.3     1  UNL1       -0.3806
     40 H         136.6480  140.7420  162.9154 H       1  UNL1        0.2108
@<TRIPOS>BOND
     1    25    26    2
     2    26    27   ar
     3    27    28   ar
     4    28    29   ar
     5    29    30   ar
     6    30    31   ar
     7    31    32   ar
     8    32    33    1
     9    32    34   ar
    10    34    35   ar
    11    35    36   ar
    12    36    37    1
    13    37    38    1
    14    38    39    1
    15    38    24    1
    16    24     1    1
    17     1     2    1
    18     2     3    1
    19     3     4    1
    20     4     9    1
    21     9    11    1
    22    11    12    1
    23    12    13   ar
    24    13    14   ar
    25    14    15   ar
    26    15    16   ar
    27    16    17    1
    28    16    18   ar
    29    18    19    1
    30    15    20    1
    31    20    21    1
    32    21    22    1
    33    22    23    1
    34     4     5    1
    35     5     6    1
    36     4     7    1
    37     7     8    1
    38    36    26   ar
    39     6     1    1
    40    35    29   ar
    41     8     1    1
    42    38    34    1
    43    18    12   ar
    44    23    14    1
    45    39    40    1
    46     9    10    1
@<TRIPOS>MOLECULE
*****
 40 46 0 0 0
SMALL
GASTEIGER

@<TRIPOS>ATOM
      1 C         138.7070  138.9785  164.0751 C.3     1  UNL1        0.0955
      2 C         138.8301  137.8987  163.0410 C.3     1  UNL1        0.0287
      3 C         138.3754  138.1522  161.6343 C.3     1  UNL1        0.0193
      4 C         137.7975  139.4853  161.2615 C.3     1  UNL1        0.0700
      5 C         137.6744  140.5649  162.2955 C.3     1  UNL1        0.0193
      6 C         138.1291  140.3115  163.7023 C.3     1  UNL1        0.0287
      7 C         138.0331  139.3933  162.0452 C.3     1  UNL1        0.1562
      8 O         138.4442  139.1641  163.3172 O.3     1  UNL1       -0.3571
      9 N         137.3428  139.7387  159.8547 N.3     1  UNL1       -0.2938
     10 H         136.5560  140.3853  159.9116 H       1  UNL1        0.1235
     11 C         138.2989  140.3074  158.8485 C.3     1  UNL1        0.0966
     12 C         139.5499  139.5586  158.4959 C.ar    1  UNL1        0.0083
     13 C         139.5063  138.4674  157.4675 C.ar    1  UNL1        0.0380
     14 C         140.7573  137.7187  157.1150 C.ar    1  UNL1        0.1730
     15 C         142.0519  138.0611  157.7907 C.ar    1  UNL1        0.1836
     16 C         142.0955  139.1522  158.8191 C.ar    1  UNL1        0.1048
     17 CL        143.3902  139.4946  159.4948 Cl      1  UNL1       -0.0781
     18 C         140.8445  139.9010  159.1716 C.ar    1  UNL1        0.0687
     19 CL        140.8882  140.9921  160.2000 Cl      1  UNL1       -0.0815
     20 O         143.3030  137.3123  157.4381 O.3     1  UNL1       -0.4675
     21 C         143.2592  136.2212  156.4097 C.3     1  UNL1        0.2527
     22 C         141.9646  135.8788  155.7341 C.3     1  UNL1        0.2526
     23 O         140.7136  136.6276  156.0866 O.3     1  UNL1       -0.4684
     24 C         139.1617  138.7250  165.4819 C.3     1  UNL1        0.0604
     25 O         138.0077  139.9802  170.3167 O.2     1  UNL1       -0.2670
     26 C         139.2629  140.6387  169.8260 C.ar    1  UNL1        0.2611
     27 C         140.0326  141.5543  170.7310 C.ar    1  UNL1        0.0623
     28 C         141.2879  142.2128  170.2403 C.ar    1  UNL1        0.0254
     29 C         141.7734  141.9557  168.8446 C.ar    1  UNL1        0.0972
     30 N         142.9767  142.4692  168.0970 N.ar    1  UNL1       -0.2400
     31 C         143.3373  142.1185  166.6839 C.ar    1  UNL1        0.1282
     32 C         142.4667  141.1836  165.8977 C.ar    1  UNL1        0.1588
     33 F         142.8274  140.8329  164.4846 F       1  UNL1       -0.2027
     34 C         141.2355  140.5995  166.5246 C.ar    1  UNL1        0.0500
     35 C         141.0037  141.0400  167.9396 C.ar    1  UNL1        0.0806
     36 N         139.7485  140.3816  168.4302 N.ar    1  UNL1       -0.2915
     37 C         139.2045  139.5341  167.3185 C.3     1  UNL1        0.1402
     38 C         140.1236  139.6688  166.1407 C.3     1  UNL1        0.1335
     39 O         140.8416  139.6062  164.8252 O.3     1  UNL1       -0.3806
     40 H         140.3607  139.0182  164.2220 H       1  UNL1        0.2108
@<TRIPOS>BOND
     1    25    26    2
     2    26    27   ar
     3    27    28   ar
     4    28    29   ar
     5    29    30   ar
     6    30    31   ar
     7    31    32   ar
     8    32    33    1
     9    32    34   ar
    10    34    35   ar
    11    35    36   ar
    12    36    37    1
    13    37    38    1
    14    38    39    1
    15    38    24    1
    16    24     1    1
    17     1     2    1
    18     2     3    1
    19     3     4    1
    20     4     9    1
    21     9    11    1
    22    11    12    1
    23    12    13   ar
    24    13    14   ar
    25    14    15   ar
    26    15    16   ar
    27    16    17    1
    28    16    18   ar
    29    18    19    1
    30    15    20    1
    31    20    21    1
    32    21    22    1
    33    22    23    1
    34     4     5    1
    35     5     6    1
    36     4     7    1
    37     7     8    1
    38    36    26   ar
    39     6     1    1
    40    35    29   ar
    41     8     1    1
    42    38    34    1
    43    18    12   ar
    44    23    14    1
    45    39    40    1
    46     9    10    1
@<TRIPOS>MOLECULE
*****
 40 46 0 0 0
SMALL
GASTEIGER

@<TRIPOS>ATOM
      1 C         138.7552  138.9508  164.1988 C.3     1  UNL1        0.0955
      2 C         138.8859  137.8943  163.1419 C.3     1  UNL1        0.0287
      3 C         138.3535  138.1439  161.7620 C.3     1  UNL1        0.0193
      4 C         137.6904  139.4499  161.4388 C.3     1  UNL1        0.0700
      5 C         137.5597  140.5064  162.4956 C.3     1  UNL1        0.0193
      6 C         138.0920  140.2569  163.8756 C.3     1  UNL1        0.0287
      7 C         137.9667  139.3591  162.2092 C.3     1  UNL1        0.1562
      8 O         138.4481  139.1334  163.4569 O.3     1  UNL1       -0.3571
      9 N         137.1579  139.6995  160.0589 N.3     1  UNL1       -0.2938
     10 H         136.3078  140.2526  160.1668 H       1  UNL1        0.1235
     11 C         138.0074  140.4049  159.0436 C.3     1  UNL1        0.0966
     12 C         139.4834  140.5476  159.2696 C.ar    1  UNL1        0.0083
     13 C         140.0247  141.7774  159.9362 C.ar    1  UNL1        0.0380
     14 C         141.5008  141.9200  160.1622 C.ar    1  UNL1        0.1730
     15 C         142.4355  140.8328  159.7214 C.ar    1  UNL1        0.1836
     16 C         141.8941  139.6029  159.0548 C.ar    1  UNL1        0.1048
     17 CL        142.8288  138.5157  158.6140 Cl      1  UNL1       -0.0781
     18 C         140.4181  139.4603  158.8288 C.ar    1  UNL1        0.0687
     19 CL        139.8769  138.2304  158.1621 Cl      1  UNL1       -0.0815
     20 O         143.9115  140.9754  159.9474 O.3     1  UNL1       -0.4675
     21 C         144.4527  142.2053  160.6141 C.3     1  UNL1        0.2527
     22 C         143.5180  143.2924  161.0548 C.3     1  UNL1        0.2526
     23 O         142.0420  143.1498  160.8289 O.3     1  UNL1       -0.4684
     24 C         139.2876  138.7012  165.5787 C.3     1  UNL1        0.0604
     25 O         138.0667  140.0916  170.3598 O.2     1  UNL1       -0.2670
     26 C         139.3103  140.7622  169.8560 C.ar    1  UNL1        0.2611
     27 C         140.0515  141.7255  170.7350 C.ar    1  UNL1        0.0623
     28 C         141.2951  142.3961  170.2312 C.ar    1  UNL1        0.0254
     29 C         141.7975  142.1033  168.8485 C.ar    1  UNL1        0.0972
     30 N         142.9945  142.6192  168.0926 N.ar    1  UNL1       -0.2400
     31 C         143.3743  142.2295  166.6948 C.ar    1  UNL1        0.1282
     32 C         142.5317  141.2487  165.9345 C.ar    1  UNL1        0.1588
     33 F         142.9116  140.8589  164.5367 F       1  UNL1       -0.2027
     34 C         141.3093  140.6576  166.5720 C.ar    1  UNL1        0.0500
     35 C         141.0562  141.1401  167.9696 C.ar    1  UNL1        0.0806
     36 N         139.8126  140.4695  168.4733 N.ar    1  UNL1       -0.2915
     37 C         139.2972  139.5726  167.3871 C.3     1  UNL1        0.1402
     38 C         140.2222  139.6888  166.2120 C.3     1  UNL1        0.1335
     39 O         140.9518  139.5986  164.9046 O.3     1  UNL1       -0.3806
     40 H         140.4894  138.9795  164.3183 H       1  UNL1        0.2108
@<TRIPOS>BOND
     1    25    26    2
     2    26    27   ar
     3    27    28   ar
     4    28    29   ar
     5    29    30   ar
     6    30    31   ar
     7    31    32   ar
     8    32    33    1
     9    32    34   ar
    10    34    35   ar
    11    35    36   ar
    12    36    37    1
    13    37    38    1
    14    38    39    1
    15    38    24    1
    16    24     1    1
    17     1     2    1
    18     2     3    1
    19     3     4    1
    20     4     9    1
    21     9    11    1
    22    11    12    1
    23    12    13   ar
    24    13    14   ar
    25    14    15   ar
    26    15    16   ar
    27    16    17    1
    28    16    18   ar
    29    18    19    1
    30    15    20    1
    31    20    21    1
    32    21    22    1
    33    22    23    1
    34     4     5    1
    35     5     6    1
    36     4     7    1
    37     7     8    1
    38    36    26   ar
    39     6     1    1
    40    35    29   ar
    41     8     1    1
    42    38    34    1
    43    18    12   ar
    44    23    14    1
    45    39    40    1
    46     9    10    1
@<TRIPOS>MOLECULE
*****
 40 46 0 0 0
SMALL
GASTEIGER

@<TRIPOS>ATOM
      1 C         139.6658  138.3700  164.0020 C.3     1  UNL1        0.0955
      2 C         141.0059  138.4271  164.6737 C.3     1  UNL1        0.0287
      3 C         141.1583  139.1419  165.9836 C.3     1  UNL1        0.0193
      4 C         139.9708  139.7995  166.6218 C.3     1  UNL1        0.0700
      5 C         138.6309  139.7423  165.9501 C.3     1  UNL1        0.0193
      6 C         138.4783  139.0276  164.6402 C.3     1  UNL1        0.0287
      7 C         139.8382  139.4195  165.9034 C.3     1  UNL1        0.1562
      8 O         139.7003  138.7732  164.7190 O.3     1  UNL1       -0.3571
      9 N         140.1233  140.5143  167.9317 N.3     1  UNL1       -0.2938
     10 H         140.8635  140.0350  168.4443 H       1  UNL1        0.1235
     11 C         140.4581  141.9763  167.9537 C.3     1  UNL1        0.0966
     12 C         140.7853  142.6901  166.6756 C.ar    1  UNL1        0.0083
     13 C         139.7014  143.3848  165.9059 C.ar    1  UNL1        0.0380
     14 C         140.0286  144.0986  164.6278 C.ar    1  UNL1        0.1730
     15 C         141.4398  144.1177  164.1195 C.ar    1  UNL1        0.1836
     16 C         142.5236  143.4230  164.8893 C.ar    1  UNL1        0.1048
     17 CL        143.9348  143.4421  164.3811 Cl      1  UNL1       -0.0781
     18 C         142.1964  142.7092  166.1674 C.ar    1  UNL1        0.0687
     19 CL        143.2804  142.0145  166.9371 Cl      1  UNL1       -0.0815
     20 O         141.7670  144.8315  162.8415 O.3     1  UNL1       -0.4675
     21 C         140.6830  145.5262  162.0718 C.3     1  UNL1        0.2527
     22 C         139.2720  145.5071  162.5801 C.3     1  UNL1        0.2526
     23 O         138.9447  144.7933  163.8581 O.3     1  UNL1       -0.4684
     24 C         139.5133  137.6552  162.6921 C.3     1  UNL1        0.0604
     25 O         144.1049  138.2251  160.4841 O.2     1  UNL1       -0.2670
     26 C         142.9992  138.8790  159.7097 C.ar    1  UNL1        0.2611
     27 C         143.3047  139.6021  158.4315 C.ar    1  UNL1        0.0623
     28 C         142.1990  140.2560  157.6571 C.ar    1  UNL1        0.0254
     29 C         140.7878  140.1868  158.1608 C.ar    1  UNL1        0.0972
     30 N         139.5018  140.7396  157.6030 N.ar    1  UNL1       -0.2400
     31 C         138.1466  140.5876  158.2279 C.ar    1  UNL1        0.1282
     32 C         137.9948  139.8331  159.5154 C.ar    1  UNL1        0.1588
     33 F         136.6396  139.6812  160.1402 F       1  UNL1       -0.2027
     34 C         139.1981  139.2306  160.1781 C.ar    1  UNL1        0.0500
     35 C         140.4823  139.4637  159.4389 C.ar    1  UNL1        0.0806
     36 N         141.5881  138.8097  160.2134 N.ar    1  UNL1       -0.2915
     37 C         140.9871  138.1726  161.4311 C.3     1  UNL1        0.1402
     38 C         139.5100  138.4327  161.4093 C.3     1  UNL1        0.1335
     39 O         138.0336  138.5303  161.6556 O.3     1  UNL1       -0.3806
     40 H         137.8120  138.0684  162.4793 H       1  UNL1        0.2108
@<TRIPOS>BOND
     1    25    26    2
     2    26    27   ar
     3    27    28   ar
     4    28    29   ar
     5    29    30   ar
     6    30    31   ar
     7    31    32   ar
     8    32    33    1
     9    32    34   ar
    10    34    35   ar
    11    35    36   ar
    12    36    37    1
    13    37    38    1
    14    38    39    1
    15    38    24    1
    16    24     1    1
    17     1     2    1
    18     2     3    1
    19     3     4    1
    20     4     9    1
    21     9    11    1
    22    11    12    1
    23    12    13   ar
    24    13    14   ar
    25    14    15   ar
    26    15    16   ar
    27    16    17    1
    28    16    18   ar
    29    18    19    1
    30    15    20    1
    31    20    21    1
    32    21    22    1
    33    22    23    1
    34     4     5    1
    35     5     6    1
    36     4     7    1
    37     7     8    1
    38    36    26   ar
    39     6     1    1
    40    35    29   ar
    41     8     1    1
    42    38    34    1
    43    18    12   ar
    44    23    14    1
    45    39    40    1
    46     9    10    1
@<TRIPOS>MOLECULE
*****
 40 46 0 0 0
SMALL
GASTEIGER

@<TRIPOS>ATOM
      1 C         138.5206  139.3528  164.8065 C.3     1  UNL1        0.0955
      2 C         137.8669  140.7028  164.7849 C.3     1  UNL1        0.0287
      3 C         137.5471  141.3604  163.4752 C.3     1  UNL1        0.0193
      4 C         137.8811  140.6682  162.1871 C.3     1  UNL1        0.0700
      5 C         138.5348  139.3183  162.2087 C.3     1  UNL1        0.0193
      6 C         138.8546  138.6606  163.5184 C.3     1  UNL1        0.0287
      7 C         138.0755  140.2681  162.8802 C.3     1  UNL1        0.1562
      8 O         138.3646  139.6735  164.0643 O.3     1  UNL1       -0.3571
      9 N         137.5614  141.3258  160.8774 N.3     1  UNL1       -0.2938
     10 H         136.6580  141.7854  160.9915 H       1  UNL1        0.1235
     11 C         138.4975  142.3475  160.3030 C.3     1  UNL1        0.0966
     12 C         139.7944  142.6488  160.9939 C.ar    1  UNL1        0.0083
     13 C         141.0125  141.8263  160.6944 C.ar    1  UNL1        0.0380
     14 C         142.3094  142.1277  161.3853 C.ar    1  UNL1        0.1730
     15 C         142.3881  143.2514  162.3757 C.ar    1  UNL1        0.1836
     16 C         141.1700  144.0739  162.6752 C.ar    1  UNL1        0.1048
     17 CL        141.2487  145.1977  163.6656 Cl      1  UNL1       -0.0781
     18 C         139.8731  143.7725  161.9843 C.ar    1  UNL1        0.0687
     19 CL        138.6550  144.5951  162.2839 Cl      1  UNL1       -0.0815
     20 O         143.6850  143.5528  163.0666 O.3     1  UNL1       -0.4675
     21 C         144.9032  142.7302  162.7670 C.3     1  UNL1        0.2527
     22 C         144.8243  141.6065  161.7766 C.3     1  UNL1        0.2526
     23 O         143.5275  141.3052  161.0857 O.3     1  UNL1       -0.4684
     24 C         138.8403  138.6952  166.1162 C.3     1  UNL1        0.0604
     25 O         143.3014  141.0712  165.2585 O.2     1  UNL1       -0.2670
     26 C         142.7531  141.3353  166.6294 C.ar    1  UNL1        0.2611
     27 C         143.5054  142.2177  167.5809 C.ar    1  UNL1        0.0623
     28 C         142.9571  142.4819  168.9519 C.ar    1  UNL1        0.0254
     29 C         141.6564  141.8636  169.3714 C.ar    1  UNL1        0.0972
     30 N         140.8806  141.9512  170.6601 N.ar    1  UNL1       -0.2400
     31 C         139.5747  141.2671  170.9371 C.ar    1  UNL1        0.1282
     32 C         138.9381  140.4109  169.8828 C.ar    1  UNL1        0.1588
     33 F         137.6323  139.7268  170.1598 F       1  UNL1       -0.2027
     34 C         139.6074  140.2388  168.5514 C.ar    1  UNL1        0.0500
     35 C         140.9041  140.9812  168.4199 C.ar    1  UNL1        0.0806
     36 N         141.4524  140.7171  167.0489 N.ar    1  UNL1       -0.2915
     37 C         140.4946  139.8114  166.3332 C.3     1  UNL1        0.1402
     38 C         139.3542  139.5158  167.2618 C.3     1  UNL1        0.1335
     39 O         138.1065  139.0487  167.9509 O.3     1  UNL1       -0.3806
     40 H         137.6024  138.4748  167.3530 H       1  UNL1        0.2108
@<TRIPOS>BOND
     1    25    26    2
     2    26    27   ar
     3    27    28   ar
     4    28    29   ar
     5    29    30   ar
     6    30    31   ar
     7    31    32   ar
     8    32    33    1
     9    32    34   ar
    10    34    35   ar
    11    35    36   ar
    12    36    37    1
    13    37    38    1
    14    38    39    1
    15    38    24    1
    16    24     1    1
    17     1     2    1
    18     2     3    1
    19     3     4    1
    20     4     9    1
    21     9    11    1
    22    11    12    1
    23    12    13   ar
    24    13    14   ar
    25    14    15   ar
    26    15    16   ar
    27    16    17    1
    28    16    18   ar
    29    18    19    1
    30    15    20    1
    31    20    21    1
    32    21    22    1
    33    22    23    1
    34     4     5    1
    35     5     6    1
    36     4     7    1
    37     7     8    1
    38    36    26   ar
    39     6     1    1
    40    35    29   ar
    41     8     1    1
    42    38    34    1
    43    18    12   ar
    44    23    14    1
    45    39    40    1
    46     9    10    1
@<TRIPOS>MOLECULE
*****
 40 46 0 0 0
SMALL
GASTEIGER

@<TRIPOS>ATOM
      1 C         137.8918  140.5798  162.1739 C.3     1  UNL1        0.0955
      2 C         137.7855  140.4329  163.6630 C.3     1  UNL1        0.0287
      3 C         137.7393  141.6521  164.5356 C.3     1  UNL1        0.0193
      4 C         137.7994  143.0182  163.9192 C.3     1  UNL1        0.0700
      5 C         137.9056  143.1652  162.4302 C.3     1  UNL1        0.0193
      6 C         137.9519  141.9460  161.5575 C.3     1  UNL1        0.0287
      7 C         137.8279  142.3796  163.4001 C.3     1  UNL1        0.1562
      8 O         137.8697  141.2772  162.6111 O.3     1  UNL1       -0.3571
      9 N         137.7531  144.2375  164.7918 N.3     1  UNL1       -0.2938
     10 H         137.1410  144.0148  165.5767 H       1  UNL1        0.1235
     11 C         139.0197  144.7914  165.3739 C.3     1  UNL1        0.0966
     12 C         140.3315  144.1216  165.0899 C.ar    1  UNL1        0.0083
     13 C         141.1101  144.4877  163.8612 C.ar    1  UNL1        0.0380
     14 C         142.4218  143.8178  163.5773 C.ar    1  UNL1        0.1730
     15 C         142.9550  142.7819  164.5221 C.ar    1  UNL1        0.1836
     16 C         142.1763  142.4158  165.7508 C.ar    1  UNL1        0.1048
     17 CL        142.7095  141.3799  166.6955 Cl      1  UNL1       -0.0781
     18 C         140.8646  143.0857  166.0347 C.ar    1  UNL1        0.0687
     19 CL        140.0860  142.7195  167.2635 Cl      1  UNL1       -0.0815
     20 O         144.2667  142.1120  164.2382 O.3     1  UNL1       -0.4675
     21 C         145.0453  142.4782  163.0094 C.3     1  UNL1        0.2527
     22 C         144.5121  143.5141  162.0647 C.3     1  UNL1        0.2526
     23 O         143.2004  144.1839  162.3486 O.3     1  UNL1       -0.4684
     24 C         137.9380  139.3606  161.3013 C.3     1  UNL1        0.0604
     25 O         138.0237  139.8408  156.1980 O.2     1  UNL1       -0.2670
     26 C         139.3121  139.3137  156.7568 C.ar    1  UNL1        0.2611
     27 C         140.4515  138.9892  155.8368 C.ar    1  UNL1        0.0623
     28 C         141.7399  138.4621  156.3956 C.ar    1  UNL1        0.0254
     29 C         141.8888  138.2594  157.8743 C.ar    1  UNL1        0.0972
     30 N         143.0435  137.7544  158.7002 N.ar    1  UNL1       -0.2400
     31 C         143.0451  137.6042  160.1926 C.ar    1  UNL1        0.1282
     32 C         141.8251  137.9710  160.9846 C.ar    1  UNL1        0.1588
     33 F         141.8267  137.8208  162.4770 F       1  UNL1       -0.2027
     34 C         140.6036  138.4879  160.2841 C.ar    1  UNL1        0.0500
     35 C         140.7494  138.5839  158.7943 C.ar    1  UNL1        0.0806
     36 N         139.4610  139.1110  158.2355 N.ar    1  UNL1       -0.2915
     37 C         138.5190  139.3408  159.3800 C.3     1  UNL1        0.1402
     38 C         139.2251  138.9556  160.6461 C.3     1  UNL1        0.1335
     39 O         139.6622  138.6552  162.0492 O.3     1  UNL1       -0.3806
     40 H         138.9394  138.8579  162.6634 H       1  UNL1        0.2108
@<TRIPOS>BOND
     1    25    26    2
     2    26    27   ar
     3    27    28   ar
     4    28    29   ar
     5    29    30   ar
     6    30    31   ar
     7    31    32   ar
     8    32    33    1
     9    32    34   ar
    10    34    35   ar
    11    35    36   ar
    12    36    37    1
    13    37    38    1
    14    38    39    1
    15    38    24    1
    16    24     1    1
    17     1     2    1
    18     2     3    1
    19     3     4    1
    20     4     9    1
    21     9    11    1
    22    11    12    1
    23    12    13   ar
    24    13    14   ar
    25    14    15   ar
    26    15    16   ar
    27    16    17    1
    28    16    18   ar
    29    18    19    1
    30    15    20    1
    31    20    21    1
    32    21    22    1
    33    22    23    1
    34     4     5    1
    35     5     6    1
    36     4     7    1
    37     7     8    1
    38    36    26   ar
    39     6     1    1
    40    35    29   ar
    41     8     1    1
    42    38    34    1
    43    18    12   ar
    44    23    14    1
    45    39    40    1
    46     9    10    1
@<TRIPOS>MOLECULE
*****
 40 46 0 0 0
SMALL
GASTEIGER

@<TRIPOS>ATOM
      1 C         138.3477  141.9633  164.6907 C.3     1  UNL1        0.0955
      2 C         138.5393  140.5321  165.0968 C.3     1  UNL1        0.0287
      3 C         139.4904  140.1876  166.2045 C.3     1  UNL1        0.0193
      4 C         140.2498  141.2744  166.9061 C.3     1  UNL1        0.0700
      5 C         140.0582  142.7056  166.4999 C.3     1  UNL1        0.0193
      6 C         139.1071  143.0501  165.3922 C.3     1  UNL1        0.0287
      7 C         139.7397  141.5121  166.3048 C.3     1  UNL1        0.1562
      8 O         138.8798  141.8235  165.3033 O.3     1  UNL1       -0.3571
      9 N         141.2008  140.9300  168.0137 N.3     1  UNL1       -0.2938
     10 H         140.8584  140.0682  168.4385 H       1  UNL1        0.1235
     11 C         142.6551  140.7173  167.7145 C.3     1  UNL1        0.0966
     12 C         143.1602  140.8590  166.3092 C.ar    1  UNL1        0.0083
     13 C         143.4075  142.2224  165.7349 C.ar    1  UNL1        0.0380
     14 C         143.9126  142.3640  164.3296 C.ar    1  UNL1        0.1730
     15 C         144.1704  141.1422  163.4986 C.ar    1  UNL1        0.1836
     16 C         143.9231  139.7787  164.0728 C.ar    1  UNL1        0.1048
     17 CL        144.1808  138.5569  163.2418 Cl      1  UNL1       -0.0781
     18 C         143.4180  139.6371  165.4781 C.ar    1  UNL1        0.0687
     19 CL        143.1707  138.2735  166.0523 Cl      1  UNL1       -0.0815
     20 O         144.6755  141.2838  162.0933 O.3     1  UNL1       -0.4675
     21 C         144.9228  142.6474  161.5191 C.3     1  UNL1        0.2527
     22 C         144.6650  143.8691  162.3502 C.3     1  UNL1        0.2526
     23 O         144.1599  143.7275  163.7554 O.3     1  UNL1       -0.4684
     24 C         137.3967  142.3078  163.5830 C.3     1  UNL1        0.0604
     25 O         140.2613  146.1347  161.7305 O.2     1  UNL1       -0.2670
     26 C         140.0058  145.0548  160.7212 C.ar    1  UNL1        0.2611
     27 C         140.5725  145.1724  159.3374 C.ar    1  UNL1        0.0623
     28 C         140.3171  144.0926  158.3281 C.ar    1  UNL1        0.0254
     29 C         139.4948  142.8952  158.7025 C.ar    1  UNL1        0.0972
     30 N         139.0836  141.6809  157.9108 N.ar    1  UNL1       -0.2400
     31 C         138.2471  140.5482  158.4277 C.ar    1  UNL1        0.1282
     32 C         137.7485  140.5688  159.8423 C.ar    1  UNL1        0.1588
     33 F         136.9120  139.4361  160.3591 F       1  UNL1       -0.2027
     34 C         138.0864  141.7220  160.7399 C.ar    1  UNL1        0.0500
     35 C         138.9281  142.7777  160.0863 C.ar    1  UNL1        0.0806
     36 N         139.1836  143.8575  161.0957 N.ar    1  UNL1       -0.2915
     37 C         138.4998  143.4692  162.3730 C.3     1  UNL1        0.1402
     38 C         137.8217  142.1494  162.1532 C.3     1  UNL1        0.1335
     39 O         137.0548  140.8627  162.2322 O.3     1  UNL1       -0.3806
     40 H         136.6781  140.7649  163.1207 H       1  UNL1        0.2108
@<TRIPOS>BOND
     1    25    26    2
     2    26    27   ar
     3    27    28   ar
     4    28    29   ar
     5    29    30   ar
     6    30    31   ar
     7    31    32   ar
     8    32    33    1
     9    32    34   ar
    10    34    35   ar
    11    35    36   ar
    12    36    37    1
    13    37    38    1
    14    38    39    1
    15    38    24    1
    16    24     1    1
    17     1     2    1
    18     2     3    1
    19     3     4    1
    20     4     9    1
    21     9    11    1
    22    11    12    1
    23    12    13   ar
    24    13    14   ar
    25    14    15   ar
    26    15    16   ar
    27    16    17    1
    28    16    18   ar
    29    18    19    1
    30    15    20    1
    31    20    21    1
    32    21    22    1
    33    22    23    1
    34     4     5    1
    35     5     6    1
    36     4     7    1
    37     7     8    1
    38    36    26   ar
    39     6     1    1
    40    35    29   ar
    41     8     1    1
    42    38    34    1
    43    18    12   ar
    44    23    14    1
    45    39    40    1
    46     9    10    1
@<TRIPOS>MOLECULE
*****
 40 46 0 0 0
SMALL
GASTEIGER

@<TRIPOS>ATOM
      1 C         137.8804  140.6040  162.0386 C.3     1  UNL1        0.0955
      2 C         137.9817  141.9603  161.4058 C.3     1  UNL1        0.0287
      3 C         137.9277  143.1923  162.2599 C.3     1  UNL1        0.0193
      4 C         137.7724  143.0680  163.7466 C.3     1  UNL1        0.0700
      5 C         137.6711  141.7118  164.3793 C.3     1  UNL1        0.0193
      6 C         137.7251  140.4797  163.5253 C.3     1  UNL1        0.0287
      7 C         137.7970  142.3642  163.3198 C.3     1  UNL1        0.1562
      8 O         137.8459  141.2503  162.5476 O.3     1  UNL1       -0.3571
      9 N         137.7183  144.3000  164.6006 N.3     1  UNL1       -0.2938
     10 H         136.9959  144.1401  165.3027 H       1  UNL1        0.1235
     11 C         138.9432  144.7570  165.3360 C.3     1  UNL1        0.0966
     12 C         140.2678  144.1082  165.0628 C.ar    1  UNL1        0.0083
     13 C         141.0592  144.5002  163.8503 C.ar    1  UNL1        0.0380
     14 C         142.3837  143.8513  163.5772 C.ar    1  UNL1        0.1730
     15 C         142.9169  142.8104  164.5166 C.ar    1  UNL1        0.1836
     16 C         142.1255  142.4184  165.7290 C.ar    1  UNL1        0.1048
     17 CL        142.6586  141.3776  166.6683 Cl      1  UNL1       -0.0781
     18 C         140.8009  143.0673  166.0021 C.ar    1  UNL1        0.0687
     19 CL        140.0096  142.6752  167.2146 Cl      1  UNL1       -0.0815
     20 O         144.2414  142.1615  164.2435 O.3     1  UNL1       -0.4675
     21 C         145.0327  142.5536  163.0309 C.3     1  UNL1        0.2527
     22 C         144.4996  143.5945  162.0917 C.3     1  UNL1        0.2526
     23 O         143.1750  144.2433  162.3648 O.3     1  UNL1       -0.4684
     24 C         137.9345  139.3721  161.1846 C.3     1  UNL1        0.0604
     25 O         141.9716  138.5620  164.2388 O.2     1  UNL1       -0.2670
     26 C         142.2942  138.3842  162.7847 C.ar    1  UNL1        0.2611
     27 C         143.6842  138.0073  162.3656 C.ar    1  UNL1        0.0623
     28 C         144.0068  137.8294  160.9115 C.ar    1  UNL1        0.0254
     29 C         142.9394  138.0284  159.8766 C.ar    1  UNL1        0.0972
     30 N         142.9747  137.9194  158.3742 N.ar    1  UNL1       -0.2400
     31 C         141.8097  138.1509  157.4580 C.ar    1  UNL1        0.1282
     32 C         140.4723  138.5244  158.0251 C.ar    1  UNL1        0.1588
     33 F         139.3073  138.7558  157.1090 F       1  UNL1       -0.2027
     34 C         140.2997  138.6666  159.5084 C.ar    1  UNL1        0.0500
     35 C         141.5494  138.4053  160.2958 C.ar    1  UNL1        0.0806
     36 N         141.2268  138.5832  161.7498 N.ar    1  UNL1       -0.2915
     37 C         139.7777  138.9544  161.8611 C.3     1  UNL1        0.1402
     38 C         139.2047  139.0059  160.4758 C.3     1  UNL1        0.1335
     39 O         138.3662  139.1340  159.2386 O.3     1  UNL1       -0.3806
     40 H         137.4605  139.3779  159.4858 H       1  UNL1        0.2108
@<TRIPOS>BOND
     1    25    26    2
     2    26    27   ar
     3    27    28   ar
     4    28    29   ar
     5    29    30   ar
     6    30    31   ar
     7    31    32   ar
     8    32    33    1
     9    32    34   ar
    10    34    35   ar
    11    35    36   ar
    12    36    37    1
    13    37    38    1
    14    38    39    1
    15    38    24    1
    16    24     1    1
    17     1     2    1
    18     2     3    1
    19     3     4    1
    20     4     9    1
    21     9    11    1
    22    11    12    1
    23    12    13   ar
    24    13    14   ar
    25    14    15   ar
    26    15    16   ar
    27    16    17    1
    28    16    18   ar
    29    18    19    1
    30    15    20    1
    31    20    21    1
    32    21    22    1
    33    22    23    1
    34     4     5    1
    35     5     6    1
    36     4     7    1
    37     7     8    1
    38    36    26   ar
    39     6     1    1
    40    35    29   ar
    41     8     1    1
    42    38    34    1
    43    18    12   ar
    44    23    14    1
    45    39    40    1
    46     9    10    1
