@<TRIPOS>MOLECULE
*****
 47 53 0 0 0
SMALL
GASTEIGER

@<TRIPOS>ATOM
      1 C         140.2424  137.7487  164.2718 C.3     1  UNL1        0.0320
      2 C         144.1815  139.7537  163.4276 C.3     1  UNL1        0.0700
      3 C         143.3034  139.3178  162.2923 C.3     1  UNL1        0.0193
      4 C         141.9903  138.6495  162.5737 C.3     1  UNL1        0.0286
      5 C         141.5554  138.4171  163.9904 C.3     1  UNL1        0.0932
      6 C         142.4336  138.8530  165.1256 C.3     1  UNL1        0.0286
      7 C         143.7467  139.5213  164.8442 C.3     1  UNL1        0.0193
      8 O         142.2834  138.7872  163.8858 O.3     1  UNL1       -0.3572
      9 C         143.4707  139.3915  163.6314 C.3     1  UNL1        0.1562
     10 N         145.4946  140.4220  163.1462 N.3     1  UNL1       -0.2926
     11 H         146.1857  139.9803  163.7525 H       1  UNL1        0.1236
     12 C         145.6377  141.9034  163.3341 C.3     1  UNL1        0.1152
     13 O         140.5677  145.3504  158.5212 O.2     1  UNL1       -0.2707
     14 C         141.0778  145.1022  159.9098 C.2     1  UNL1        0.2718
     15 C         140.4082  145.7548  161.0827 C.3     1  UNL1        0.2898
     16 O         140.9183  145.5065  162.4712 O.3     1  UNL1       -0.4628
     17 C         142.0981  144.6058  162.6870 C.ar    1  UNL1        0.1708
     18 C         142.6083  144.3576  164.0755 C.ar    1  UNL1        0.0411
     19 C         143.7881  143.4568  164.2912 C.ar    1  UNL1        0.0193
     20 C         144.4578  142.8042  163.1183 C.ar    1  UNL1        0.0765
     21 N         143.9477  143.0524  161.7298 N.ar    1  UNL1       -0.2304
     22 C         142.7678  143.9532  161.5141 C.ar    1  UNL1        0.1682
     23 N         142.2577  144.2014  160.1255 N.am    1  UNL1       -0.2639
     24 H         142.6972  143.7731  159.3557 H       1  UNL1        0.1565
     25 C         139.0092  138.5765  164.4816 C.3     1  UNL1        0.0327
     26 C         138.4779  139.4269  163.3660 C.ar    1  UNL1        0.0261
     27 C         137.9659  138.7839  162.1112 C.ar    1  UNL1        0.1566
     28 F         137.9852  137.2905  161.9720 F       1  UNL1       -0.2028
     29 C         137.4347  139.6343  160.9956 C.ar    1  UNL1        0.1281
     30 N         137.4154  141.1277  161.1347 N.ar    1  UNL1       -0.2400
     31 C         137.9274  141.7707  162.3894 C.ar    1  UNL1        0.0990
     32 C         137.9081  143.2641  162.5286 C.ar    1  UNL1        0.0254
     33 C         138.4201  143.9072  163.7834 C.ar    1  UNL1        0.0593
     34 C         138.9514  143.0568  164.8990 C.ar    1  UNL1        0.2253
     35 N         138.9706  141.5634  164.7598 N.ar    1  UNL1       -0.2104
     36 C         138.4587  140.9203  163.5051 C.ar    1  UNL1        0.1002
     37 O         139.4633  143.6998  166.1537 O.3     1  UNL1       -0.4539
     38 C         140.6363  143.1061  166.8759 C.3     1  UNL1        0.2486
     39 C         140.4132  142.1785  168.0335 C.2     1  UNL1        0.0883
     40 C         140.5725  142.6802  169.4381 C.3     1  UNL1        0.1174
     41 C         140.3494  141.7527  170.5956 C.2     1  UNL1        0.2137
     42 O         140.5087  142.2544  172.0002 O.2     1  UNL1       -0.2877
     43 C         139.9669  140.3235  170.3485 C.2     1  UNL1        0.1884
     44 O         139.7438  139.3959  171.5061 O.2     1  UNL1       -0.5019
     45 C         139.8076  139.8218  168.9439 C.2     1  UNL1        0.1377
     46 N         140.0307  140.7493  167.7864 N.2     1  UNL1       -0.2451
     47 H         139.8433  139.7093  172.3835 H       1  UNL1        0.2924
@<TRIPOS>BOND
     1    13    14    2
     2    14    15    1
     3    15    16    1
     4    16    17    1
     5    17    18   ar
     6    18    19   ar
     7    19    20   ar
     8    20    12    1
     9    12    10    1
    10    10     2    1
    11     2     3    1
    12     3     4    1
    13     4     5    1
    14     5     1    1
    15     1    25    1
    16    25    26    1
    17    26    27   ar
    18    27    28    1
    19    27    29   ar
    20    29    30   ar
    21    30    31   ar
    22    31    32   ar
    23    32    33   ar
    24    33    34   ar
    25    34    37    1
    26    37    38    1
    27    38    39    1
    28    39    40    1
    29    40    41    1
    30    41    42    2
    31    41    43    1
    32    43    44    1
    33    43    45    2
    34    45    46    1
    35    34    35   ar
    36    35    36   ar
    37     5     6    1
    38     6     7    1
    39     5     8    1
    40     8     9    1
    41    20    21   ar
    42    21    22   ar
    43    22    23    1
    44    23    14   am
    45    22    17   ar
    46     7     2    1
    47     9     2    1
    48    36    26   ar
    49    36    31   ar
    50    46    39    2
    51    10    11    1
    52    44    47    1
    53    23    24    1
@<TRIPOS>MOLECULE
*****
 47 53 0 0 0
SMALL
GASTEIGER

@<TRIPOS>ATOM
      1 C         138.0265  143.9938  164.5682 C.3     1  UNL1        0.0320
      2 C         137.8904  139.9403  162.6188 C.3     1  UNL1        0.0700
      3 C         138.1247  140.0546  164.0960 C.3     1  UNL1        0.0193
      4 C         138.1701  141.4058  164.7458 C.3     1  UNL1        0.0286
      5 C         137.9812  142.6427  163.9184 C.3     1  UNL1        0.0932
      6 C         137.7469  142.5283  162.4413 C.3     1  UNL1        0.0286
      7 C         137.7015  141.1771  161.7914 C.3     1  UNL1        0.0193
      8 O         137.9481  141.9242  163.5177 O.3     1  UNL1       -0.3572
      9 C         137.9071  140.7024  162.9300 C.3     1  UNL1        0.1562
     10 N         137.8450  138.5891  161.9690 N.3     1  UNL1       -0.2926
     11 H         137.5774  137.9228  162.6934 H       1  UNL1        0.1236
     12 C         139.0698  138.0358  161.3028 C.3     1  UNL1        0.1152
     13 O         143.9390  138.0683  167.3888 O.2     1  UNL1       -0.2707
     14 C         143.6729  138.3337  165.9367 C.2     1  UNL1        0.2718
     15 C         144.7637  138.8752  165.0610 C.3     1  UNL1        0.2898
     16 O         144.4976  139.1405  163.6089 O.3     1  UNL1       -0.4628
     17 C         143.1407  138.8643  163.0323 C.ar    1  UNL1        0.1708
     18 C         142.8746  139.1296  161.5802 C.ar    1  UNL1        0.0411
     19 C         141.5177  138.8535  161.0036 C.ar    1  UNL1        0.0193
     20 C         140.4268  138.3119  161.8793 C.ar    1  UNL1        0.0765
     21 N         140.6928  138.0466  163.3315 N.ar    1  UNL1       -0.2304
     22 C         142.0499  138.3228  163.9080 C.ar    1  UNL1        0.1682
     23 N         142.3160  138.0575  165.3601 N.am    1  UNL1       -0.2639
     24 H         141.6000  137.7021  165.9349 H       1  UNL1        0.1565
     25 C         139.3202  144.7500  164.6368 C.3     1  UNL1        0.0327
     26 C         140.2740  144.7110  163.4798 C.ar    1  UNL1        0.0261
     27 C         139.9245  145.4038  162.1960 C.ar    1  UNL1        0.1566
     28 F         138.6212  146.1355  162.0693 F       1  UNL1       -0.2028
     29 C         140.8783  145.3648  161.0390 C.ar    1  UNL1        0.1281
     30 N         142.1816  144.6331  161.1657 N.ar    1  UNL1       -0.2400
     31 C         142.5311  143.9404  162.4494 C.ar    1  UNL1        0.0990
     32 C         143.8344  143.2087  162.5761 C.ar    1  UNL1        0.0254
     33 C         144.1838  142.5159  163.8599 C.ar    1  UNL1        0.0593
     34 C         143.2300  142.5549  165.0169 C.ar    1  UNL1        0.2253
     35 N         141.9268  143.2866  164.8902 N.ar    1  UNL1       -0.2104
     36 C         141.5773  143.9793  163.6065 C.ar    1  UNL1        0.1002
     37 O         143.5795  141.8622  166.3006 O.3     1  UNL1       -0.4539
     38 C         143.1524  142.4524  167.6118 C.3     1  UNL1        0.2486
     39 C         142.0663  141.7958  168.4115 C.2     1  UNL1        0.0883
     40 C         141.7907  142.2477  169.8150 C.3     1  UNL1        0.1174
     41 C         140.7048  141.5912  170.6148 C.2     1  UNL1        0.2137
     42 O         140.4291  142.0432  172.0182 O.2     1  UNL1       -0.2877
     43 C         139.8944  140.4827  170.0110 C.2     1  UNL1        0.1884
     44 O         138.8084  139.8261  170.8108 O.2     1  UNL1       -0.5019
     45 C         140.1701  140.0307  168.6076 C.2     1  UNL1        0.1377
     46 N         141.2560  140.6872  167.8078 N.2     1  UNL1       -0.2451
     47 H         138.6362  140.1084  171.6875 H       1  UNL1        0.2924
@<TRIPOS>BOND
     1    13    14    2
     2    14    15    1
     3    15    16    1
     4    16    17    1
     5    17    18   ar
     6    18    19   ar
     7    19    20   ar
     8    20    12    1
     9    12    10    1
    10    10     2    1
    11     2     3    1
    12     3     4    1
    13     4     5    1
    14     5     1    1
    15     1    25    1
    16    25    26    1
    17    26    27   ar
    18    27    28    1
    19    27    29   ar
    20    29    30   ar
    21    30    31   ar
    22    31    32   ar
    23    32    33   ar
    24    33    34   ar
    25    34    37    1
    26    37    38    1
    27    38    39    1
    28    39    40    1
    29    40    41    1
    30    41    42    2
    31    41    43    1
    32    43    44    1
    33    43    45    2
    34    45    46    1
    35    34    35   ar
    36    35    36   ar
    37     5     6    1
    38     6     7    1
    39     5     8    1
    40     8     9    1
    41    20    21   ar
    42    21    22   ar
    43    22    23    1
    44    23    14   am
    45    22    17   ar
    46     7     2    1
    47     9     2    1
    48    36    26   ar
    49    36    31   ar
    50    46    39    2
    51    10    11    1
    52    44    47    1
    53    23    24    1
@<TRIPOS>MOLECULE
*****
 47 53 0 0 0
SMALL
GASTEIGER

@<TRIPOS>ATOM
      1 C         142.4946  137.8251  161.3229 C.3     1  UNL1        0.0320
      2 C         144.9675  141.0175  163.3087 C.3     1  UNL1        0.0700
      3 C         144.5804  139.7855  164.0718 C.3     1  UNL1        0.0193
      4 C         143.7561  138.7214  163.4099 C.3     1  UNL1        0.0286
      5 C         143.3189  138.8892  161.9848 C.3     1  UNL1        0.0932
      6 C         143.7060  140.1213  161.2218 C.3     1  UNL1        0.0286
      7 C         144.5303  141.1854  161.8838 C.3     1  UNL1        0.0193
      8 O         143.7695  139.4994  162.3050 O.3     1  UNL1       -0.3572
      9 C         144.5149  140.4617  162.9035 C.3     1  UNL1        0.1562
     10 N         145.7918  142.0816  163.9706 N.3     1  UNL1       -0.2926
     11 H         146.4536  141.6036  164.5821 H       1  UNL1        0.1236
     12 C         145.1252  143.1408  164.7977 C.3     1  UNL1        0.1152
     13 O         139.2696  146.6327  161.0203 O.2     1  UNL1       -0.2707
     14 C         139.7537  145.7329  162.1185 C.2     1  UNL1        0.2718
     15 C         138.7701  145.0973  163.0557 C.3     1  UNL1        0.2898
     16 O         139.2542  144.1974  164.1538 O.3     1  UNL1       -0.4628
     17 C         140.7219  143.9333  164.3148 C.ar    1  UNL1        0.1708
     18 C         141.2060  143.0335  165.4130 C.ar    1  UNL1        0.0411
     19 C         142.6737  142.7693  165.5739 C.ar    1  UNL1        0.0193
     20 C         143.6575  143.4049  164.6367 C.ar    1  UNL1        0.0765
     21 N         143.1734  144.3048  163.5386 N.ar    1  UNL1       -0.2304
     22 C         141.7056  144.5689  163.3776 C.ar    1  UNL1        0.1682
     23 N         141.2215  145.4687  162.2794 N.am    1  UNL1       -0.2639
     24 H         141.8671  145.8859  161.6643 H       1  UNL1        0.1565
     25 C         141.0715  137.6082  161.7444 C.3     1  UNL1        0.0327
     26 C         140.0313  138.6436  161.4345 C.ar    1  UNL1        0.0261
     27 C         139.6481  138.9190  160.0107 C.ar    1  UNL1        0.1566
     28 F         140.3050  138.1591  158.8967 F       1  UNL1       -0.2028
     29 C         138.6080  139.9544  159.7008 C.ar    1  UNL1        0.1281
     30 N         137.9511  140.7144  160.8148 N.ar    1  UNL1       -0.2400
     31 C         138.3343  140.4390  162.2386 C.ar    1  UNL1        0.0990
     32 C         137.6773  141.1990  163.3525 C.ar    1  UNL1        0.0254
     33 C         138.0606  140.9235  164.7764 C.ar    1  UNL1        0.0593
     34 C         139.1007  139.8881  165.0862 C.ar    1  UNL1        0.2253
     35 N         139.7576  139.1281  163.9723 N.ar    1  UNL1       -0.2104
     36 C         139.3744  139.4035  162.5485 C.ar    1  UNL1        0.1002
     37 O         139.4839  139.6127  166.5100 O.3     1  UNL1       -0.4539
     38 C         140.9143  139.7473  166.9413 C.3     1  UNL1        0.2486
     39 C         141.2441  140.3930  168.2545 C.2     1  UNL1        0.0883
     40 C         140.3661  141.4817  168.7964 C.3     1  UNL1        0.1174
     41 C         140.6959  142.1274  170.1095 C.2     1  UNL1        0.2137
     42 O         139.8178  143.2161  170.6514 O.2     1  UNL1       -0.2877
     43 C         141.9037  141.6843  170.8807 C.2     1  UNL1        0.1884
     44 O         142.2335  142.3300  172.1939 O.2     1  UNL1       -0.5019
     45 C         142.7817  140.5956  170.3388 C.2     1  UNL1        0.1377
     46 N         142.4519  139.9499  169.0256 N.2     1  UNL1       -0.2451
     47 H         141.6851  143.0101  172.5324 H       1  UNL1        0.2924
@<TRIPOS>BOND
     1    13    14    2
     2    14    15    1
     3    15    16    1
     4    16    17    1
     5    17    18   ar
     6    18    19   ar
     7    19    20   ar
     8    20    12    1
     9    12    10    1
    10    10     2    1
    11     2     3    1
    12     3     4    1
    13     4     5    1
    14     5     1    1
    15     1    25    1
    16    25    26    1
    17    26    27   ar
    18    27    28    1
    19    27    29   ar
    20    29    30   ar
    21    30    31   ar
    22    31    32   ar
    23    32    33   ar
    24    33    34   ar
    25    34    37    1
    26    37    38    1
    27    38    39    1
    28    39    40    1
    29    40    41    1
    30    41    42    2
    31    41    43    1
    32    43    44    1
    33    43    45    2
    34    45    46    1
    35    34    35   ar
    36    35    36   ar
    37     5     6    1
    38     6     7    1
    39     5     8    1
    40     8     9    1
    41    20    21   ar
    42    21    22   ar
    43    22    23    1
    44    23    14   am
    45    22    17   ar
    46     7     2    1
    47     9     2    1
    48    36    26   ar
    49    36    31   ar
    50    46    39    2
    51    10    11    1
    52    44    47    1
    53    23    24    1
@<TRIPOS>MOLECULE
*****
 47 53 0 0 0
SMALL
GASTEIGER

@<TRIPOS>ATOM
      1 C         143.9796  142.8650  165.3623 C.3     1  UNL1        0.0320
      2 C         140.3334  140.6401  166.7784 C.3     1  UNL1        0.0700
      3 C         141.6945  140.2330  167.2599 C.3     1  UNL1        0.0193
      4 C         142.9098  140.9746  166.7879 C.3     1  UNL1        0.0286
      5 C         142.7642  142.1234  165.8343 C.3     1  UNL1        0.0932
      6 C         141.4032  142.5305  165.3528 C.3     1  UNL1        0.0286
      7 C         140.1878  141.7888  165.8249 C.3     1  UNL1        0.0193
      8 O         142.0691  141.7473  166.0651 O.3     1  UNL1       -0.3572
      9 C         140.9701  141.0767  166.4919 C.3     1  UNL1        0.1562
     10 N         139.1181  139.8985  167.2504 N.3     1  UNL1       -0.2926
     11 H         139.3002  139.6178  168.2140 H       1  UNL1        0.1236
     12 C         138.6583  138.6708  166.5213 C.3     1  UNL1        0.1152
     13 O         137.5799  140.1147  158.9383 O.2     1  UNL1       -0.2707
     14 C         138.3325  139.4201  160.0342 C.2     1  UNL1        0.2718
     15 C         139.4783  138.5122  159.6984 C.3     1  UNL1        0.2898
     16 O         140.2310  137.8176  160.7943 O.3     1  UNL1       -0.4628
     17 C         139.8378  138.0309  162.2261 C.ar    1  UNL1        0.1708
     18 C         140.5905  137.3363  163.3220 C.ar    1  UNL1        0.0411
     19 C         140.1973  137.5496  164.7537 C.ar    1  UNL1        0.0193
     20 C         139.0515  138.4575  165.0896 C.ar    1  UNL1        0.0765
     21 N         138.2988  139.1521  163.9937 N.ar    1  UNL1       -0.2304
     22 C         138.6920  138.9388  162.5619 C.ar    1  UNL1        0.1682
     23 N         137.9394  139.6334  161.4659 N.am    1  UNL1       -0.2639
     24 H         137.1874  140.2293  161.6864 H       1  UNL1        0.1565
     25 C         144.8638  142.2634  164.3105 C.3     1  UNL1        0.0327
     26 C         144.3261  141.2043  163.3946 C.ar    1  UNL1        0.0261
     27 C         144.6128  139.7579  163.6705 C.ar    1  UNL1        0.1566
     28 F         145.4373  139.3709  164.8623 F       1  UNL1       -0.2028
     29 C         144.0751  138.6988  162.7546 C.ar    1  UNL1        0.1281
     30 N         143.2506  139.0858  161.5628 N.ar    1  UNL1       -0.2400
     31 C         142.9638  140.5321  161.2869 C.ar    1  UNL1        0.0990
     32 C         142.1393  140.9191  160.0951 C.ar    1  UNL1        0.0254
     33 C         141.8525  142.3655  159.8193 C.ar    1  UNL1        0.0593
     34 C         142.3903  143.4246  160.7352 C.ar    1  UNL1        0.2253
     35 N         143.2148  143.0376  161.9270 N.ar    1  UNL1       -0.2104
     36 C         143.5016  141.5913  162.2028 C.ar    1  UNL1        0.1002
     37 O         142.1035  144.8708  160.4593 O.3     1  UNL1       -0.4539
     38 C         140.7067  145.3988  160.6012 C.3     1  UNL1        0.2486
     39 C         139.7643  144.7719  161.5856 C.2     1  UNL1        0.0883
     40 C         139.7344  145.2529  163.0061 C.3     1  UNL1        0.1174
     41 C         138.7921  144.6261  163.9905 C.2     1  UNL1        0.2137
     42 O         138.7621  145.1071  165.4109 O.2     1  UNL1       -0.2877
     43 C         137.8797  143.5182  163.5544 C.2     1  UNL1        0.1884
     44 O         136.9374  142.8913  164.5388 O.2     1  UNL1       -0.5019
     45 C         137.9097  143.0372  162.1339 C.2     1  UNL1        0.1377
     46 N         138.8520  143.6640  161.1495 N.2     1  UNL1       -0.2451
     47 H         136.9186  143.1917  165.4261 H       1  UNL1        0.2924
@<TRIPOS>BOND
     1    13    14    2
     2    14    15    1
     3    15    16    1
     4    16    17    1
     5    17    18   ar
     6    18    19   ar
     7    19    20   ar
     8    20    12    1
     9    12    10    1
    10    10     2    1
    11     2     3    1
    12     3     4    1
    13     4     5    1
    14     5     1    1
    15     1    25    1
    16    25    26    1
    17    26    27   ar
    18    27    28    1
    19    27    29   ar
    20    29    30   ar
    21    30    31   ar
    22    31    32   ar
    23    32    33   ar
    24    33    34   ar
    25    34    37    1
    26    37    38    1
    27    38    39    1
    28    39    40    1
    29    40    41    1
    30    41    42    2
    31    41    43    1
    32    43    44    1
    33    43    45    2
    34    45    46    1
    35    34    35   ar
    36    35    36   ar
    37     5     6    1
    38     6     7    1
    39     5     8    1
    40     8     9    1
    41    20    21   ar
    42    21    22   ar
    43    22    23    1
    44    23    14   am
    45    22    17   ar
    46     7     2    1
    47     9     2    1
    48    36    26   ar
    49    36    31   ar
    50    46    39    2
    51    10    11    1
    52    44    47    1
    53    23    24    1
@<TRIPOS>MOLECULE
*****
 47 53 0 0 0
SMALL
GASTEIGER

@<TRIPOS>ATOM
      1 C         139.3227  139.2835  160.4522 C.3     1  UNL1        0.0320
      2 C         143.4518  139.2305  162.2403 C.3     1  UNL1        0.0700
      3 C         142.8991  140.5016  161.6670 C.3     1  UNL1        0.0193
      4 C         141.5227  140.5193  161.0710 C.3     1  UNL1        0.0286
      5 C         140.6991  139.2658  161.0482 C.3     1  UNL1        0.0932
      6 C         141.2518  137.9947  161.6215 C.3     1  UNL1        0.0286
      7 C         142.6283  137.9770  162.2176 C.3     1  UNL1        0.0193
      8 O         141.4479  139.2071  161.3855 O.3     1  UNL1       -0.3572
      9 C         142.6925  139.1911  161.9244 C.3     1  UNL1        0.1562
     10 N         144.8282  139.2128  162.8364 N.3     1  UNL1       -0.2926
     11 H         145.2757  138.3531  162.5186 H       1  UNL1        0.1236
     12 C         145.0014  139.2663  164.3254 C.3     1  UNL1        0.1152
     13 O         139.3438  139.7393  169.6656 O.2     1  UNL1       -0.2707
     14 C         140.2968  140.4083  168.7199 C.2     1  UNL1        0.2718
     15 C         140.3168  141.9040  168.6087 C.3     1  UNL1        0.2898
     16 O         141.2697  142.5730  167.6630 O.3     1  UNL1       -0.4628
     17 C         142.2027  141.7464  166.8286 C.ar    1  UNL1        0.1708
     18 C         143.1556  142.4154  165.8829 C.ar    1  UNL1        0.0411
     19 C         144.0885  141.5887  165.0486 C.ar    1  UNL1        0.0193
     20 C         144.0685  140.0929  165.1598 C.ar    1  UNL1        0.0765
     21 N         143.1156  139.4239  166.1055 N.ar    1  UNL1       -0.2304
     22 C         142.1826  140.2507  166.9399 C.ar    1  UNL1        0.1682
     23 N         141.2297  139.5816  167.8855 N.am    1  UNL1       -0.2639
     24 H         141.2165  138.5999  167.9586 H       1  UNL1        0.1565
     25 C         138.1424  139.6526  161.3011 C.3     1  UNL1        0.0327
     26 C         138.3127  139.8465  162.7787 C.ar    1  UNL1        0.0261
     27 C         138.4096  138.6554  163.6853 C.ar    1  UNL1        0.1566
     28 F         138.3361  137.2703  163.1142 F       1  UNL1       -0.2028
     29 C         138.5798  138.8493  165.1629 C.ar    1  UNL1        0.1281
     30 N         138.6533  140.2344  165.7340 N.ar    1  UNL1       -0.2400
     31 C         138.5565  141.4255  164.8275 C.ar    1  UNL1        0.0990
     32 C         138.6299  142.8106  165.3986 C.ar    1  UNL1        0.0254
     33 C         138.5331  144.0018  164.4920 C.ar    1  UNL1        0.0593
     34 C         138.3628  143.8078  163.0144 C.ar    1  UNL1        0.2253
     35 N         138.2894  142.4227  162.4433 N.ar    1  UNL1       -0.2104
     36 C         138.3862  141.2316  163.3498 C.ar    1  UNL1        0.1002
     37 O         138.2660  144.9989  162.1079 O.3     1  UNL1       -0.4539
     38 C         139.4631  145.8766  161.8922 C.3     1  UNL1        0.2486
     39 C         140.8432  145.2929  161.9613 C.2     1  UNL1        0.0883
     40 C         141.7036  145.5421  163.1645 C.3     1  UNL1        0.1174
     41 C         143.0836  144.9584  163.2337 C.2     1  UNL1        0.2137
     42 O         143.9439  145.2076  164.4369 O.2     1  UNL1       -0.2877
     43 C         143.6033  144.1256  162.0996 C.2     1  UNL1        0.1884
     44 O         144.9834  143.5419  162.1687 O.2     1  UNL1       -0.5019
     45 C         142.7430  143.8764  160.8964 C.2     1  UNL1        0.1377
     46 N         141.3630  144.4600  160.8272 N.2     1  UNL1       -0.2451
     47 H         145.5208  143.6975  162.9203 H       1  UNL1        0.2924
@<TRIPOS>BOND
     1    13    14    2
     2    14    15    1
     3    15    16    1
     4    16    17    1
     5    17    18   ar
     6    18    19   ar
     7    19    20   ar
     8    20    12    1
     9    12    10    1
    10    10     2    1
    11     2     3    1
    12     3     4    1
    13     4     5    1
    14     5     1    1
    15     1    25    1
    16    25    26    1
    17    26    27   ar
    18    27    28    1
    19    27    29   ar
    20    29    30   ar
    21    30    31   ar
    22    31    32   ar
    23    32    33   ar
    24    33    34   ar
    25    34    37    1
    26    37    38    1
    27    38    39    1
    28    39    40    1
    29    40    41    1
    30    41    42    2
    31    41    43    1
    32    43    44    1
    33    43    45    2
    34    45    46    1
    35    34    35   ar
    36    35    36   ar
    37     5     6    1
    38     6     7    1
    39     5     8    1
    40     8     9    1
    41    20    21   ar
    42    21    22   ar
    43    22    23    1
    44    23    14   am
    45    22    17   ar
    46     7     2    1
    47     9     2    1
    48    36    26   ar
    49    36    31   ar
    50    46    39    2
    51    10    11    1
    52    44    47    1
    53    23    24    1
@<TRIPOS>MOLECULE
*****
 47 53 0 0 0
SMALL
GASTEIGER

@<TRIPOS>ATOM
      1 C         140.6754  137.4034  164.6659 C.3     1  UNL1        0.0320
      2 C         144.3083  139.7368  163.3980 C.3     1  UNL1        0.0700
      3 C         143.2219  139.4429  162.4063 C.3     1  UNL1        0.0193
      4 C         142.0110  138.6651  162.8289 C.3     1  UNL1        0.0286
      5 C         141.8863  138.1812  164.2433 C.3     1  UNL1        0.0932
      6 C         142.9727  138.4751  165.2350 C.3     1  UNL1        0.0286
      7 C         144.1837  139.2529  164.8123 C.3     1  UNL1        0.0193
      8 O         142.5685  138.6036  164.0585 O.3     1  UNL1       -0.3572
      9 C         143.6635  139.3069  163.6763 C.3     1  UNL1        0.1562
     10 N         145.5192  140.5146  162.9754 N.3     1  UNL1       -0.2926
     11 H         146.3229  140.0745  163.4235 H       1  UNL1        0.1236
     12 C         145.6086  141.9825  163.2709 C.3     1  UNL1        0.1152
     13 O         140.2897  145.6470  158.9086 O.2     1  UNL1       -0.2707
     14 C         140.8397  145.2876  160.2570 C.2     1  UNL1        0.2718
     15 C         140.1669  145.7904  161.4998 C.3     1  UNL1        0.2898
     16 O         140.7169  145.4311  162.8482 O.3     1  UNL1       -0.4628
     17 C         141.9398  144.5689  162.9539 C.ar    1  UNL1        0.1708
     18 C         142.4899  144.2096  164.3023 C.ar    1  UNL1        0.0411
     19 C         143.7128  143.3475  164.4080 C.ar    1  UNL1        0.0193
     20 C         144.3857  142.8446  163.1652 C.ar    1  UNL1        0.0765
     21 N         143.8356  143.2040  161.8168 N.ar    1  UNL1       -0.2304
     22 C         142.6127  144.0662  161.7111 C.ar    1  UNL1        0.1682
     23 N         142.0626  144.4255  160.3627 N.am    1  UNL1       -0.2639
     24 H         142.5042  144.0955  159.5470 H       1  UNL1        0.1565
     25 C         139.4722  138.1213  165.2017 C.3     1  UNL1        0.0327
     26 C         139.4804  139.6169  165.3158 C.ar    1  UNL1        0.0261
     27 C         140.0213  140.2719  166.5522 C.ar    1  UNL1        0.1566
     28 F         140.5540  139.4311  167.6744 F       1  UNL1       -0.2028
     29 C         140.0295  141.7675  166.6663 C.ar    1  UNL1        0.1281
     30 N         139.4968  142.6082  165.5440 N.ar    1  UNL1       -0.2400
     31 C         138.9559  141.9533  164.3077 C.ar    1  UNL1        0.0990
     32 C         138.4232  142.7941  163.1855 C.ar    1  UNL1        0.0254
     33 C         137.8824  142.1391  161.9491 C.ar    1  UNL1        0.0593
     34 C         137.8742  140.6435  161.8350 C.ar    1  UNL1        0.2253
     35 N         138.4069  139.8028  162.9572 N.ar    1  UNL1       -0.2104
     36 C         138.9477  140.4577  164.1935 C.ar    1  UNL1        0.1002
     37 O         137.3334  139.9887  160.5986 O.3     1  UNL1       -0.4539
     38 C         137.9958  140.2250  159.2737 C.3     1  UNL1        0.2486
     39 C         139.4754  140.0254  159.1288 C.2     1  UNL1        0.0883
     40 C         140.3775  141.2097  158.9457 C.3     1  UNL1        0.1174
     41 C         141.8571  141.0102  158.8007 C.2     1  UNL1        0.2137
     42 O         142.7593  142.1945  158.6177 O.2     1  UNL1       -0.2877
     43 C         142.4345  139.6263  158.8388 C.2     1  UNL1        0.1884
     44 O         143.9141  139.4267  158.6939 O.2     1  UNL1       -0.5019
     45 C         141.5323  138.4420  159.0219 C.2     1  UNL1        0.1377
     46 N         140.0528  138.6415  159.1668 N.2     1  UNL1       -0.2451
     47 H         144.4777  140.1665  158.5795 H       1  UNL1        0.2924
@<TRIPOS>BOND
     1    13    14    2
     2    14    15    1
     3    15    16    1
     4    16    17    1
     5    17    18   ar
     6    18    19   ar
     7    19    20   ar
     8    20    12    1
     9    12    10    1
    10    10     2    1
    11     2     3    1
    12     3     4    1
    13     4     5    1
    14     5     1    1
    15     1    25    1
    16    25    26    1
    17    26    27   ar
    18    27    28    1
    19    27    29   ar
    20    29    30   ar
    21    30    31   ar
    22    31    32   ar
    23    32    33   ar
    24    33    34   ar
    25    34    37    1
    26    37    38    1
    27    38    39    1
    28    39    40    1
    29    40    41    1
    30    41    42    2
    31    41    43    1
    32    43    44    1
    33    43    45    2
    34    45    46    1
    35    34    35   ar
    36    35    36   ar
    37     5     6    1
    38     6     7    1
    39     5     8    1
    40     8     9    1
    41    20    21   ar
    42    21    22   ar
    43    22    23    1
    44    23    14   am
    45    22    17   ar
    46     7     2    1
    47     9     2    1
    48    36    26   ar
    49    36    31   ar
    50    46    39    2
    51    10    11    1
    52    44    47    1
    53    23    24    1
@<TRIPOS>MOLECULE
*****
 47 53 0 0 0
SMALL
GASTEIGER

@<TRIPOS>ATOM
      1 C         138.6485  138.1287  162.9582 C.3     1  UNL1        0.0320
      2 C         137.9538  142.3870  164.2364 C.3     1  UNL1        0.0700
      3 C         137.5281  141.9349  162.8710 C.3     1  UNL1        0.0193
      4 C         137.7596  140.5155  162.4449 C.3     1  UNL1        0.0286
      5 C         138.4169  139.5481  163.3843 C.3     1  UNL1        0.0932
      6 C         138.8426  140.0003  164.7497 C.3     1  UNL1        0.0286
      7 C         138.6110  141.4198  165.1758 C.3     1  UNL1        0.0193
      8 O         138.3111  140.3158  163.6625 O.3     1  UNL1       -0.3572
      9 C         138.1017  141.5993  164.0478 C.3     1  UNL1        0.1562
     10 N         137.7222  143.8065  164.6625 N.3     1  UNL1       -0.2926
     11 H         136.9078  144.1396  164.1466 H       1  UNL1        0.1236
     12 C         138.8018  144.8311  164.4761 C.3     1  UNL1        0.1152
     13 O         140.2283  146.1175  156.9223 O.2     1  UNL1       -0.2707
     14 C         140.6731  145.6022  158.2589 C.2     1  UNL1        0.2718
     15 C         142.0382  145.0003  158.4143 C.3     1  UNL1        0.2898
     16 O         142.4830  144.4850  159.7509 O.3     1  UNL1       -0.4628
     17 C         141.5628  144.5715  160.9322 C.ar    1  UNL1        0.1708
     18 C         142.0076  144.0562  162.2688 C.ar    1  UNL1        0.0411
     19 C         141.0873  144.1427  163.4501 C.ar    1  UNL1        0.0193
     20 C         139.7221  144.7446  163.2948 C.ar    1  UNL1        0.0765
     21 N         139.2773  145.2599  161.9582 N.ar    1  UNL1       -0.2304
     22 C         140.1976  145.1734  160.7769 C.ar    1  UNL1        0.1682
     23 N         139.7528  145.6887  159.4403 N.am    1  UNL1       -0.2639
     24 H         138.8568  146.0838  159.3383 H       1  UNL1        0.1565
     25 C         140.0275  137.6740  162.5821 C.3     1  UNL1        0.0327
     26 C         140.9472  138.6003  161.8432 C.ar    1  UNL1        0.0261
     27 C         140.8030  138.7751  160.3603 C.ar    1  UNL1        0.1566
     28 F         139.7391  138.0236  159.6165 F       1  UNL1       -0.2028
     29 C         141.7227  139.7014  159.6214 C.ar    1  UNL1        0.1281
     30 N         142.7866  140.4530  160.3652 N.ar    1  UNL1       -0.2400
     31 C         142.9308  140.2782  161.8480 C.ar    1  UNL1        0.0990
     32 C         143.9947  141.0298  162.5918 C.ar    1  UNL1        0.0254
     33 C         144.1389  140.8550  164.0747 C.ar    1  UNL1        0.0593
     34 C         143.2192  139.9287  164.8136 C.ar    1  UNL1        0.2253
     35 N         142.1553  139.1771  164.0697 N.ar    1  UNL1       -0.2104
     36 C         142.0111  139.3519  162.5870 C.ar    1  UNL1        0.1002
     37 O         143.3634  139.7539  166.2963 O.3     1  UNL1       -0.4539
     38 C         142.2080  139.2473  167.1077 C.3     1  UNL1        0.2486
     39 C         141.7816  139.9807  168.3449 C.2     1  UNL1        0.0883
     40 C         140.3342  140.0111  168.7373 C.3     1  UNL1        0.1174
     41 C         139.9077  140.7444  169.9744 C.2     1  UNL1        0.2137
     42 O         138.4603  140.7748  170.3669 O.2     1  UNL1       -0.2877
     43 C         140.9288  141.4473  170.8190 C.2     1  UNL1        0.1884
     44 O         140.5024  142.1807  172.0561 O.2     1  UNL1       -0.5019
     45 C         142.3762  141.4169  170.4265 C.2     1  UNL1        0.1377
     46 N         142.8026  140.6836  169.1895 N.2     1  UNL1       -0.2451
     47 H         139.5982  142.1997  172.3013 H       1  UNL1        0.2924
@<TRIPOS>BOND
     1    13    14    2
     2    14    15    1
     3    15    16    1
     4    16    17    1
     5    17    18   ar
     6    18    19   ar
     7    19    20   ar
     8    20    12    1
     9    12    10    1
    10    10     2    1
    11     2     3    1
    12     3     4    1
    13     4     5    1
    14     5     1    1
    15     1    25    1
    16    25    26    1
    17    26    27   ar
    18    27    28    1
    19    27    29   ar
    20    29    30   ar
    21    30    31   ar
    22    31    32   ar
    23    32    33   ar
    24    33    34   ar
    25    34    37    1
    26    37    38    1
    27    38    39    1
    28    39    40    1
    29    40    41    1
    30    41    42    2
    31    41    43    1
    32    43    44    1
    33    43    45    2
    34    45    46    1
    35    34    35   ar
    36    35    36   ar
    37     5     6    1
    38     6     7    1
    39     5     8    1
    40     8     9    1
    41    20    21   ar
    42    21    22   ar
    43    22    23    1
    44    23    14   am
    45    22    17   ar
    46     7     2    1
    47     9     2    1
    48    36    26   ar
    49    36    31   ar
    50    46    39    2
    51    10    11    1
    52    44    47    1
    53    23    24    1
@<TRIPOS>MOLECULE
*****
 47 53 0 0 0
SMALL
GASTEIGER

@<TRIPOS>ATOM
      1 C         137.9702  139.3771  165.5412 C.3     1  UNL1        0.0320
      2 C         139.5549  143.5088  164.7240 C.3     1  UNL1        0.0700
      3 C         138.5418  142.8980  163.8017 C.3     1  UNL1        0.0193
      4 C         138.0136  141.5209  164.0741 C.3     1  UNL1        0.0286
      5 C         138.4984  140.7543  165.2688 C.3     1  UNL1        0.0932
      6 C         139.5115  141.3650  166.1911 C.3     1  UNL1        0.0286
      7 C         140.0398  142.7423  165.9187 C.3     1  UNL1        0.0193
      8 O         138.8169  141.5058  165.1607 O.3     1  UNL1       -0.3572
      9 C         139.2946  142.7511  164.9144 C.3     1  UNL1        0.1562
     10 N         140.0832  144.8859  164.4516 N.3     1  UNL1       -0.2926
     11 H         139.3719  145.3713  163.9048 H       1  UNL1        0.1236
     12 C         141.3829  145.0602  163.7233 C.3     1  UNL1        0.1152
     13 O         144.0591  139.2394  159.2842 O.2     1  UNL1       -0.2707
     14 C         143.3581  140.5594  159.4116 C.2     1  UNL1        0.2718
     15 C         142.8482  141.2591  158.1867 C.3     1  UNL1        0.2898
     16 O         142.1473  142.5791  158.3141 O.3     1  UNL1       -0.4628
     17 C         141.9562  143.1994  159.6664 C.ar    1  UNL1        0.1708
     18 C         141.2552  144.5194  159.7938 C.ar    1  UNL1        0.0411
     19 C         141.0641  145.1397  161.1461 C.ar    1  UNL1        0.0193
     20 C         141.5740  144.4400  162.3711 C.ar    1  UNL1        0.0765
     21 N         142.2750  143.1200  162.2437 N.ar    1  UNL1       -0.2304
     22 C         142.4661  142.4997  160.8913 C.ar    1  UNL1        0.1682
     23 N         143.1670  141.1797  160.7639 N.am    1  UNL1       -0.2639
     24 H         143.5017  140.7204  161.5678 H       1  UNL1        0.1565
     25 C         138.7887  138.1741  165.1767 C.3     1  UNL1        0.0327
     26 C         139.8022  138.2626  164.0745 C.ar    1  UNL1        0.0261
     27 C         139.3800  138.0608  162.6493 C.ar    1  UNL1        0.1566
     28 F         137.9442  137.7707  162.3264 F       1  UNL1       -0.2028
     29 C         140.3935  138.1493  161.5471 C.ar    1  UNL1        0.1281
     30 N         141.8293  138.4395  161.8700 N.ar    1  UNL1       -0.2400
     31 C         142.2516  138.6412  163.2951 C.ar    1  UNL1        0.0990
     32 C         143.6874  138.9314  163.6180 C.ar    1  UNL1        0.0254
     33 C         144.1096  139.1332  165.0432 C.ar    1  UNL1        0.0593
     34 C         143.0961  139.0447  166.1454 C.ar    1  UNL1        0.2253
     35 N         141.6603  138.7545  165.8225 N.ar    1  UNL1       -0.2104
     36 C         141.2380  138.5528  164.3974 C.ar    1  UNL1        0.1002
     37 O         143.5184  139.2465  167.5705 O.3     1  UNL1       -0.4539
     38 C         142.5593  138.9524  168.6857 C.3     1  UNL1        0.2486
     39 C         141.7400  140.0586  169.2816 C.2     1  UNL1        0.0883
     40 C         142.3993  141.3405  169.6963 C.3     1  UNL1        0.1174
     41 C         141.5801  142.4468  170.2922 C.2     1  UNL1        0.2137
     42 O         142.2394  143.7287  170.7069 O.2     1  UNL1       -0.2877
     43 C         140.1015  142.2711  170.4733 C.2     1  UNL1        0.1884
     44 O         139.2822  143.3773  171.0692 O.2     1  UNL1       -0.5019
     45 C         139.4422  140.9892  170.0586 C.2     1  UNL1        0.1377
     46 N         140.2614  139.8829  169.4627 N.2     1  UNL1       -0.2451
     47 H         139.6940  144.1781  171.3282 H       1  UNL1        0.2924
@<TRIPOS>BOND
     1    13    14    2
     2    14    15    1
     3    15    16    1
     4    16    17    1
     5    17    18   ar
     6    18    19   ar
     7    19    20   ar
     8    20    12    1
     9    12    10    1
    10    10     2    1
    11     2     3    1
    12     3     4    1
    13     4     5    1
    14     5     1    1
    15     1    25    1
    16    25    26    1
    17    26    27   ar
    18    27    28    1
    19    27    29   ar
    20    29    30   ar
    21    30    31   ar
    22    31    32   ar
    23    32    33   ar
    24    33    34   ar
    25    34    37    1
    26    37    38    1
    27    38    39    1
    28    39    40    1
    29    40    41    1
    30    41    42    2
    31    41    43    1
    32    43    44    1
    33    43    45    2
    34    45    46    1
    35    34    35   ar
    36    35    36   ar
    37     5     6    1
    38     6     7    1
    39     5     8    1
    40     8     9    1
    41    20    21   ar
    42    21    22   ar
    43    22    23    1
    44    23    14   am
    45    22    17   ar
    46     7     2    1
    47     9     2    1
    48    36    26   ar
    49    36    31   ar
    50    46    39    2
    51    10    11    1
    52    44    47    1
    53    23    24    1
@<TRIPOS>MOLECULE
*****
 47 53 0 0 0
SMALL
GASTEIGER

@<TRIPOS>ATOM
      1 C         138.2724  143.8549  164.5479 C.3     1  UNL1        0.0320
      2 C         138.7259  139.3811  164.7180 C.3     1  UNL1        0.0700
      3 C         139.3169  140.2365  165.7992 C.3     1  UNL1        0.0193
      4 C         139.1658  141.7277  165.7425 C.3     1  UNL1        0.0286
      5 C         138.4236  142.3636  164.6046 C.3     1  UNL1        0.0932
      6 C         137.8326  141.5082  163.5234 C.3     1  UNL1        0.0286
      7 C         137.9838  140.0169  163.5801 C.3     1  UNL1        0.0193
      8 O         138.4805  141.5423  164.5926 O.3     1  UNL1       -0.3572
      9 C         138.6172  140.1939  164.6438 C.3     1  UNL1        0.1562
     10 N         138.8771  137.8898  164.7747 N.3     1  UNL1       -0.2926
     11 H         138.6174  137.6032  165.7185 H       1  UNL1        0.1236
     12 C         140.2059  137.2589  164.4808 C.3     1  UNL1        0.1152
     13 O         141.8168  138.8577  157.0243 O.2     1  UNL1       -0.2707
     14 C         142.1846  138.9283  158.4768 C.2     1  UNL1        0.2718
     15 C         143.4571  139.6025  158.8963 C.3     1  UNL1        0.2898
     16 O         143.8250  139.6732  160.3488 O.3     1  UNL1       -0.4628
     17 C         142.9202  139.0696  161.3818 C.ar    1  UNL1        0.1708
     18 C         143.2880  139.1403  162.8343 C.ar    1  UNL1        0.0411
     19 C         142.3833  138.5367  163.8673 C.ar    1  UNL1        0.0193
     20 C         141.1107  137.8625  163.4478 C.ar    1  UNL1        0.0765
     21 N         140.7429  137.7918  161.9953 N.ar    1  UNL1       -0.2304
     22 C         141.6477  138.3954  160.9623 C.ar    1  UNL1        0.1682
     23 N         141.2799  138.3248  159.5098 N.am    1  UNL1       -0.2639
     24 H         140.4446  137.8822  159.2345 H       1  UNL1        0.1565
     25 C         139.4887  144.7328  164.5532 C.3     1  UNL1        0.0327
     26 C         140.4647  144.6687  163.4160 C.ar    1  UNL1        0.0261
     27 C         140.1416  145.3354  162.1117 C.ar    1  UNL1        0.1566
     28 F         138.8423  146.0661  161.9446 F       1  UNL1       -0.2028
     29 C         141.1177  145.2713  160.9746 C.ar    1  UNL1        0.1281
     30 N         142.4170  144.5406  161.1417 N.ar    1  UNL1       -0.2400
     31 C         142.7402  143.8740  162.4459 C.ar    1  UNL1        0.0990
     32 C         144.0395  143.1433  162.6130 C.ar    1  UNL1        0.0254
     33 C         144.3626  142.4767  163.9174 C.ar    1  UNL1        0.0593
     34 C         143.3865  142.5407  165.0545 C.ar    1  UNL1        0.2253
     35 N         142.0872  143.2714  164.8874 N.ar    1  UNL1       -0.2104
     36 C         141.7640  143.9380  163.5831 C.ar    1  UNL1        0.1002
     37 O         143.7097  141.8741  166.3587 O.3     1  UNL1       -0.4539
     38 C         143.2742  142.5013  167.6498 C.3     1  UNL1        0.2486
     39 C         142.4076  141.7322  168.6025 C.2     1  UNL1        0.0883
     40 C         141.8208  142.4161  169.8017 C.3     1  UNL1        0.1174
     41 C         140.9542  141.6471  170.7543 C.2     1  UNL1        0.2137
     42 O         140.3674  142.3309  171.9535 O.2     1  UNL1       -0.2877
     43 C         140.6744  140.1942  170.5078 C.2     1  UNL1        0.1884
     44 O         139.8077  139.4251  171.4604 O.2     1  UNL1       -0.5019
     45 C         141.2612  139.5104  169.3086 C.2     1  UNL1        0.1377
     46 N         142.1278  140.2794  168.3560 N.2     1  UNL1       -0.2451
     47 H         139.4412  139.8523  172.2095 H       1  UNL1        0.2924
@<TRIPOS>BOND
     1    13    14    2
     2    14    15    1
     3    15    16    1
     4    16    17    1
     5    17    18   ar
     6    18    19   ar
     7    19    20   ar
     8    20    12    1
     9    12    10    1
    10    10     2    1
    11     2     3    1
    12     3     4    1
    13     4     5    1
    14     5     1    1
    15     1    25    1
    16    25    26    1
    17    26    27   ar
    18    27    28    1
    19    27    29   ar
    20    29    30   ar
    21    30    31   ar
    22    31    32   ar
    23    32    33   ar
    24    33    34   ar
    25    34    37    1
    26    37    38    1
    27    38    39    1
    28    39    40    1
    29    40    41    1
    30    41    42    2
    31    41    43    1
    32    43    44    1
    33    43    45    2
    34    45    46    1
    35    34    35   ar
    36    35    36   ar
    37     5     6    1
    38     6     7    1
    39     5     8    1
    40     8     9    1
    41    20    21   ar
    42    21    22   ar
    43    22    23    1
    44    23    14   am
    45    22    17   ar
    46     7     2    1
    47     9     2    1
    48    36    26   ar
    49    36    31   ar
    50    46    39    2
    51    10    11    1
    52    44    47    1
    53    23    24    1
