@<TRIPOS>MOLECULE
*****
 37 42 0 0 0
SMALL
GASTEIGER

@<TRIPOS>ATOM
      1 O         142.6000  144.4183  159.9596 O.2     1  UNL1       -0.2526
      2 C         141.8937  143.1304  160.2636 C.2     1  UNL1        0.3040
      3 N         140.8371  143.0874  161.3274 N.am    1  UNL1       -0.2874
      4 N         142.2439  141.8854  159.5037 N.am    1  UNL1       -0.2642
      5 C         143.3004  141.9284  158.4398 C.3     1  UNL1        0.0954
      6 C         143.6507  140.6834  157.6800 C.3     1  UNL1        0.0309
      7 C         142.9443  139.3955  157.9840 C.3     1  UNL1        0.0827
      8 C         141.8878  139.3526  159.0478 C.3     1  UNL1        0.0309
      9 C         141.5375  140.5975  159.8077 C.3     1  UNL1        0.0954
     10 H         140.3735  142.2421  161.5269 H       1  UNL1        0.1510
     11 C         143.2945  138.1506  157.2241 C.ar    1  UNL1        0.2362
     12 N         142.8233  136.7622  157.5411 N.ar    1  UNL1       -0.1895
     13 C         143.4151  135.8290  156.5267 C.ar    1  UNL1        0.2210
     14 N         144.2520  136.6405  155.5828 N.ar    1  UNL1       -0.0544
     15 O         144.1775  138.0753  156.0138 O.2     1  UNL1       -0.3370
     16 C         143.2065  134.3447  156.4668 C.ar    1  UNL1        0.1202
     17 C         142.1003  133.7761  155.6284 C.ar    1  UNL1        0.0224
     18 C         141.8916  132.2919  155.5684 C.ar    1  UNL1        0.0031
     19 C         142.7892  131.3763  156.3470 C.ar    1  UNL1        0.0177
     20 C         142.5806  129.8921  156.2870 C.ar    1  UNL1        0.0015
     21 C         143.4782  128.9765  157.0655 C.ar    1  UNL1        0.0001
     22 C         144.5844  129.5452  157.9039 C.ar    1  UNL1        0.0015
     23 C         144.7930  131.0294  157.9639 C.ar    1  UNL1        0.0191
     24 C         143.8954  131.9449  157.1854 C.ar    1  UNL1        0.0814
     25 N         144.1040  133.4292  157.2453 N.ar    1  UNL1       -0.2422
     26 C         140.4868  144.3324  162.0874 C.3     1  UNL1        0.1054
     27 C         139.8681  144.2303  163.4500 C.3     1  UNL1        0.0636
     28 C         139.5468  144.1126  164.9104 C.3     1  UNL1        0.0164
     29 C         138.0545  144.1355  165.0600 C.3     1  UNL1        0.0014
     30 C         137.4534  144.2672  163.6920 C.3     1  UNL1        0.0014
     31 C         138.5743  144.3258  162.6969 C.3     1  UNL1        0.0164
     32 N         141.2912  144.1561  163.9181 N.3     1  UNL1       -0.2694
     33 C         142.2619  145.2359  163.5414 C.3     1  UNL1        0.1046
     34 C         143.6850  145.1617  164.0095 C.3     1  UNL1        0.1595
     35 O         144.1375  144.0077  164.8543 O.3     1  UNL1       -0.3508
     36 C         143.1669  142.9280  165.2310 C.3     1  UNL1        0.1595
     37 C         141.7437  143.0022  164.7629 C.3     1  UNL1        0.1046
@<TRIPOS>BOND
     1     1     2    2
     2     2     3   am
     3     3    26    1
     4    26    27    1
     5    27    32    1
     6    32    33    1
     7    33    34    1
     8    34    35    1
     9    35    36    1
    10    36    37    1
    11    27    28    1
    12    28    29    1
    13    29    30    1
    14    30    31    1
    15     2     4   am
    16     4     5    1
    17     5     6    1
    18     6     7    1
    19     7    11    1
    20    11    12   ar
    21    12    13   ar
    22    13    16    1
    23    16    17   ar
    24    17    18   ar
    25    18    19   ar
    26    19    20   ar
    27    20    21   ar
    28    21    22   ar
    29    22    23   ar
    30    23    24   ar
    31    24    25   ar
    32    13    14   ar
    33    14    15   ar
    34     7     8    1
    35     8     9    1
    36    31    27    1
    37     9     4    1
    38    37    32    1
    39    15    11   ar
    40    25    16   ar
    41    24    19   ar
    42     3    10    1
@<TRIPOS>MOLECULE
*****
 37 42 0 0 0
SMALL
GASTEIGER

@<TRIPOS>ATOM
      1 O         142.0111  143.3610  165.1103 O.2     1  UNL1       -0.2526
      2 C         141.1521  142.5275  164.2062 C.2     1  UNL1        0.3040
      3 N         140.5873  141.2275  164.6970 N.am    1  UNL1       -0.2874
      4 N         140.8579  142.9940  162.8113 N.am    1  UNL1       -0.2642
      5 C         141.4227  144.2940  162.3205 C.3     1  UNL1        0.0954
      6 C         141.1285  144.7605  160.9256 C.3     1  UNL1        0.0309
      7 C         140.2695  143.9270  160.0215 C.3     1  UNL1        0.0827
      8 C         139.7047  142.6269  160.5123 C.3     1  UNL1        0.0309
      9 C         139.9989  142.1604  161.9072 C.3     1  UNL1        0.0954
     10 H         140.0235  140.6804  164.1036 H       1  UNL1        0.1510
     11 C         139.9753  144.3935  158.6266 C.ar    1  UNL1        0.2362
     12 N         140.1300  145.7949  158.1145 N.ar    1  UNL1       -0.1895
     13 C         139.7251  145.8079  156.6702 C.ar    1  UNL1        0.2210
     14 N         139.3202  144.4147  156.2897 N.ar    1  UNL1       -0.0544
     15 O         139.4749  143.5405  157.4987 O.2     1  UNL1       -0.3370
     16 C         139.7251  147.0044  155.7654 C.ar    1  UNL1        0.1202
     17 C         140.3502  146.9156  154.4047 C.ar    1  UNL1        0.0224
     18 C         140.3502  148.1120  153.4999 C.ar    1  UNL1        0.0031
     19 C         139.7251  149.3971  153.9557 C.ar    1  UNL1        0.0177
     20 C         139.7251  150.5934  153.0509 C.ar    1  UNL1        0.0015
     21 C         139.1000  151.8785  153.5067 C.ar    1  UNL1        0.0001
     22 C         138.4748  151.9672  154.8673 C.ar    1  UNL1        0.0015
     23 C         138.4748  150.7709  155.7721 C.ar    1  UNL1        0.0191
     24 C         139.0999  149.4858  155.3163 C.ar    1  UNL1        0.0814
     25 N         139.0999  148.2894  156.2212 N.ar    1  UNL1       -0.2422
     26 C         140.8815  140.7609  166.0920 C.3     1  UNL1        0.1054
     27 C         139.8058  140.1047  166.9059 C.3     1  UNL1        0.0636
     28 C         138.8776  139.5823  167.9620 C.3     1  UNL1        0.0164
     29 C         137.8237  138.7565  167.2856 C.3     1  UNL1        0.0014
     30 C         138.1007  138.7685  165.8114 C.3     1  UNL1        0.0014
     31 C         139.3257  139.6018  165.5767 C.3     1  UNL1        0.0164
     32 N         140.5108  140.7448  168.0648 N.3     1  UNL1       -0.2694
     33 C         141.1391  139.8901  169.1254 C.3     1  UNL1        0.1046
     34 C         141.8441  140.5302  170.2844 C.3     1  UNL1        0.1595
     35 O         141.9209  142.0250  170.3828 O.3     1  UNL1       -0.3508
     36 C         141.2926  142.8797  169.3222 C.3     1  UNL1        0.1595
     37 C         140.5876  142.2396  168.1633 C.3     1  UNL1        0.1046
@<TRIPOS>BOND
     1     1     2    2
     2     2     3   am
     3     3    26    1
     4    26    27    1
     5    27    32    1
     6    32    33    1
     7    33    34    1
     8    34    35    1
     9    35    36    1
    10    36    37    1
    11    27    28    1
    12    28    29    1
    13    29    30    1
    14    30    31    1
    15     2     4   am
    16     4     5    1
    17     5     6    1
    18     6     7    1
    19     7    11    1
    20    11    12   ar
    21    12    13   ar
    22    13    16    1
    23    16    17   ar
    24    17    18   ar
    25    18    19   ar
    26    19    20   ar
    27    20    21   ar
    28    21    22   ar
    29    22    23   ar
    30    23    24   ar
    31    24    25   ar
    32    13    14   ar
    33    14    15   ar
    34     7     8    1
    35     8     9    1
    36    31    27    1
    37     9     4    1
    38    37    32    1
    39    15    11   ar
    40    25    16   ar
    41    24    19   ar
    42     3    10    1
@<TRIPOS>MOLECULE
*****
 37 42 0 0 0
SMALL
GASTEIGER

@<TRIPOS>ATOM
      1 O         143.4815  139.5453  165.3934 O.2     1  UNL1       -0.2526
      2 C         142.3938  139.7786  164.3872 C.2     1  UNL1        0.3040
      3 N         141.1572  140.5311  164.7804 N.am    1  UNL1       -0.2874
      4 N         142.5426  139.2593  162.9879 N.am    1  UNL1       -0.2642
      5 C         143.7791  138.5068  162.5947 C.3     1  UNL1        0.0954
      6 C         143.9279  137.9875  161.1953 C.3     1  UNL1        0.0309
      7 C         142.8401  138.2209  160.1891 C.3     1  UNL1        0.0827
      8 C         141.6036  138.9734  160.5823 C.3     1  UNL1        0.0309
      9 C         141.4548  139.4927  161.9817 C.3     1  UNL1        0.0954
     10 H         140.4433  140.6843  164.1200 H       1  UNL1        0.1510
     11 C         142.9889  137.7016  158.7898 C.ar    1  UNL1        0.2362
     12 N         142.9481  136.2606  158.3750 N.ar    1  UNL1       -0.1895
     13 C         143.1386  136.2007  156.8883 C.ar    1  UNL1        0.2210
     14 N         143.2972  137.6045  156.3843 N.ar    1  UNL1       -0.0544
     15 O         143.2047  138.5321  157.5594 O.2     1  UNL1       -0.3370
     16 C         143.1657  134.9554  156.0525 C.ar    1  UNL1        0.1202
     17 C         142.3843  134.8933  154.7736 C.ar    1  UNL1        0.0224
     18 C         142.4114  133.6481  153.9378 C.ar    1  UNL1        0.0031
     19 C         143.2200  132.4649  154.3808 C.ar    1  UNL1        0.0177
     20 C         143.2471  131.2197  153.5450 C.ar    1  UNL1        0.0015
     21 C         144.0556  130.0365  153.9880 C.ar    1  UNL1        0.0001
     22 C         144.8370  130.0985  155.2669 C.ar    1  UNL1        0.0015
     23 C         144.8099  131.3437  156.1027 C.ar    1  UNL1        0.0191
     24 C         144.0014  132.5269  155.6597 C.ar    1  UNL1        0.0814
     25 N         143.9742  133.7722  156.4955 N.ar    1  UNL1       -0.2422
     26 C         141.0084  141.0504  166.1798 C.3     1  UNL1        0.1054
     27 C         140.0435  140.3964  167.1238 C.3     1  UNL1        0.0636
     28 C         139.2735  139.8492  168.2890 C.3     1  UNL1        0.0164
     29 C         138.0670  139.1366  167.7538 C.3     1  UNL1        0.0014
     30 C         138.0913  139.2434  166.2577 C.3     1  UNL1        0.0014
     31 C         139.3129  140.0220  165.8684 C.3     1  UNL1        0.0164
     32 N         140.9759  140.9075  168.1818 N.3     1  UNL1       -0.2694
     33 C         141.9133  139.9637  168.8750 C.3     1  UNL1        0.1046
     34 C         142.8456  140.4749  169.9330 C.3     1  UNL1        0.1595
     35 O         142.8406  141.9298  170.2979 O.3     1  UNL1       -0.3508
     36 C         141.9032  142.8736  169.6047 C.3     1  UNL1        0.1595
     37 C         140.9708  142.3625  168.5467 C.3     1  UNL1        0.1046
@<TRIPOS>BOND
     1     1     2    2
     2     2     3   am
     3     3    26    1
     4    26    27    1
     5    27    32    1
     6    32    33    1
     7    33    34    1
     8    34    35    1
     9    35    36    1
    10    36    37    1
    11    27    28    1
    12    28    29    1
    13    29    30    1
    14    30    31    1
    15     2     4   am
    16     4     5    1
    17     5     6    1
    18     6     7    1
    19     7    11    1
    20    11    12   ar
    21    12    13   ar
    22    13    16    1
    23    16    17   ar
    24    17    18   ar
    25    18    19   ar
    26    19    20   ar
    27    20    21   ar
    28    21    22   ar
    29    22    23   ar
    30    23    24   ar
    31    24    25   ar
    32    13    14   ar
    33    14    15   ar
    34     7     8    1
    35     8     9    1
    36    31    27    1
    37     9     4    1
    38    37    32    1
    39    15    11   ar
    40    25    16   ar
    41    24    19   ar
    42     3    10    1
@<TRIPOS>MOLECULE
*****
 37 42 0 0 0
SMALL
GASTEIGER

@<TRIPOS>ATOM
      1 O         143.5552  143.6355  161.0897 O.2     1  UNL1       -0.2526
      2 C         142.9158  142.3202  161.4229 C.2     1  UNL1        0.3040
      3 N         142.2766  142.1153  162.7643 N.am    1  UNL1       -0.2874
      4 N         142.9156  141.2096  160.4146 N.am    1  UNL1       -0.2642
      5 C         143.5548  141.4145  159.0731 C.3     1  UNL1        0.0954
      6 C         143.5546  140.3040  158.0648 C.3     1  UNL1        0.0309
      7 C         142.9152  138.9886  158.3979 C.3     1  UNL1        0.0827
      8 C         142.2759  138.7837  159.7394 C.3     1  UNL1        0.0309
      9 C         142.2761  139.8943  160.7477 C.3     1  UNL1        0.0954
     10 H         141.8569  141.2520  162.9829 H       1  UNL1        0.1510
     11 C         142.9149  137.8781  157.3896 C.ar    1  UNL1        0.2362
     12 N         142.6830  136.4245  157.6789 N.ar    1  UNL1       -0.1895
     13 C         142.7713  135.6742  156.3830 C.ar    1  UNL1        0.2210
     14 N         143.0579  136.6639  155.2929 N.ar    1  UNL1       -0.0544
     15 O         143.1467  138.0260  155.9150 O.2     1  UNL1       -0.3370
     16 C         142.6027  134.1940  156.2080 C.ar    1  UNL1        0.1202
     17 C         141.5619  133.6638  155.2669 C.ar    1  UNL1        0.0224
     18 C         141.3932  132.1837  155.0919 C.ar    1  UNL1        0.0031
     19 C         142.2654  131.2336  155.8580 C.ar    1  UNL1        0.0177
     20 C         142.0967  129.7535  155.6830 C.ar    1  UNL1        0.0015
     21 C         142.9689  128.8035  156.4491 C.ar    1  UNL1        0.0001
     22 C         144.0097  129.3337  157.3902 C.ar    1  UNL1        0.0015
     23 C         144.1783  130.8139  157.5652 C.ar    1  UNL1        0.0191
     24 C         143.3062  131.7638  156.7991 C.ar    1  UNL1        0.0814
     25 N         143.4748  133.2441  156.9741 N.ar    1  UNL1       -0.2422
     26 C         142.2767  143.2259  163.7727 C.3     1  UNL1        0.1054
     27 C         141.3191  143.1913  164.9267 C.3     1  UNL1        0.0636
     28 C         140.1702  143.3084  165.8839 C.3     1  UNL1        0.0164
     29 C         140.5752  142.6619  167.1754 C.3     1  UNL1        0.0014
     30 C         141.9744  142.1451  167.0163 C.3     1  UNL1        0.0014
     31 C         142.4341  142.4723  165.6265 C.3     1  UNL1        0.0164
     32 N         140.4043  143.9175  163.9855 N.3     1  UNL1       -0.2694
     33 C         140.8910  145.1346  163.2563 C.3     1  UNL1        0.1046
     34 C         139.9762  145.8608  162.3151 C.3     1  UNL1        0.1595
     35 O         138.5747  145.3699  162.1032 O.3     1  UNL1       -0.3508
     36 C         138.0880  144.1528  162.8325 C.3     1  UNL1        0.1595
     37 C         139.0028  143.4266  163.7736 C.3     1  UNL1        0.1046
@<TRIPOS>BOND
     1     1     2    2
     2     2     3   am
     3     3    26    1
     4    26    27    1
     5    27    32    1
     6    32    33    1
     7    33    34    1
     8    34    35    1
     9    35    36    1
    10    36    37    1
    11    27    28    1
    12    28    29    1
    13    29    30    1
    14    30    31    1
    15     2     4   am
    16     4     5    1
    17     5     6    1
    18     6     7    1
    19     7    11    1
    20    11    12   ar
    21    12    13   ar
    22    13    16    1
    23    16    17   ar
    24    17    18   ar
    25    18    19   ar
    26    19    20   ar
    27    20    21   ar
    28    21    22   ar
    29    22    23   ar
    30    23    24   ar
    31    24    25   ar
    32    13    14   ar
    33    14    15   ar
    34     7     8    1
    35     8     9    1
    36    31    27    1
    37     9     4    1
    38    37    32    1
    39    15    11   ar
    40    25    16   ar
    41    24    19   ar
    42     3    10    1
@<TRIPOS>MOLECULE
*****
 37 42 0 0 0
SMALL
GASTEIGER

@<TRIPOS>ATOM
      1 O         139.3457  141.9716  165.6199 O.2     1  UNL1       -0.2526
      2 C         140.5175  142.4210  164.7983 C.2     1  UNL1        0.3040
      3 N         141.8888  142.4583  165.4052 N.am    1  UNL1       -0.2874
      4 N         140.3181  142.8331  163.3699 N.am    1  UNL1       -0.2642
      5 C         138.9469  142.7958  162.7631 C.3     1  UNL1        0.0954
      6 C         138.7474  143.2079  161.3347 C.3     1  UNL1        0.0309
      7 C         139.9193  143.6573  160.5131 C.3     1  UNL1        0.0827
      8 C         141.2905  143.6946  161.1200 C.3     1  UNL1        0.0309
      9 C         141.4899  143.2825  162.5484 C.3     1  UNL1        0.0954
     10 H         142.6579  142.7532  164.8660 H       1  UNL1        0.1510
     11 C         139.7198  144.0694  159.0847 C.ar    1  UNL1        0.2362
     12 N         139.9105  145.4503  158.5306 N.ar    1  UNL1       -0.1895
     13 C         139.6032  145.4072  157.0630 C.ar    1  UNL1        0.2210
     14 N         139.2226  143.9999  156.7101 N.ar    1  UNL1       -0.0544
     15 O         139.2947  143.1731  157.9596 O.2     1  UNL1       -0.3370
     16 C         139.6656  146.5679  156.1148 C.ar    1  UNL1        0.1202
     17 C         140.3546  146.4185  154.7908 C.ar    1  UNL1        0.0224
     18 C         140.4170  147.5791  153.8426 C.ar    1  UNL1        0.0031
     19 C         139.7903  148.8892  154.2184 C.ar    1  UNL1        0.0177
     20 C         139.8527  150.0498  153.2702 C.ar    1  UNL1        0.0015
     21 C         139.2261  151.3597  153.6460 C.ar    1  UNL1        0.0001
     22 C         138.5371  151.5091  154.9700 C.ar    1  UNL1        0.0015
     23 C         138.4747  150.3485  155.9182 C.ar    1  UNL1        0.0191
     24 C         139.1013  149.0386  155.5424 C.ar    1  UNL1        0.0814
     25 N         139.0390  147.8779  156.4906 N.ar    1  UNL1       -0.2422
     26 C         142.0883  142.0461  166.8337 C.3     1  UNL1        0.1054
     27 C         142.3998  140.6168  167.1654 C.3     1  UNL1        0.0636
     28 C         142.5502  139.2477  167.7593 C.3     1  UNL1        0.0164
     29 C         143.3488  138.4127  166.8028 C.3     1  UNL1        0.0014
     30 C         143.6920  139.2658  165.6177 C.3     1  UNL1        0.0014
     31 C         143.1055  140.6281  165.8418 C.3     1  UNL1        0.0164
     32 N         141.6290  140.9045  168.4196 N.3     1  UNL1       -0.2694
     33 C         140.3186  140.2183  168.6686 C.3     1  UNL1        0.1046
     34 C         139.5478  140.5059  169.9228 C.3     1  UNL1        0.1595
     35 O         140.0874  141.4797  170.9281 O.3     1  UNL1       -0.3508
     36 C         141.3978  142.1659  170.6792 C.3     1  UNL1        0.1595
     37 C         142.1686  141.8782  169.4249 C.3     1  UNL1        0.1046
@<TRIPOS>BOND
     1     1     2    2
     2     2     3   am
     3     3    26    1
     4    26    27    1
     5    27    32    1
     6    32    33    1
     7    33    34    1
     8    34    35    1
     9    35    36    1
    10    36    37    1
    11    27    28    1
    12    28    29    1
    13    29    30    1
    14    30    31    1
    15     2     4   am
    16     4     5    1
    17     5     6    1
    18     6     7    1
    19     7    11    1
    20    11    12   ar
    21    12    13   ar
    22    13    16    1
    23    16    17   ar
    24    17    18   ar
    25    18    19   ar
    26    19    20   ar
    27    20    21   ar
    28    21    22   ar
    29    22    23   ar
    30    23    24   ar
    31    24    25   ar
    32    13    14   ar
    33    14    15   ar
    34     7     8    1
    35     8     9    1
    36    31    27    1
    37     9     4    1
    38    37    32    1
    39    15    11   ar
    40    25    16   ar
    41    24    19   ar
    42     3    10    1
@<TRIPOS>MOLECULE
*****
 37 42 0 0 0
SMALL
GASTEIGER

@<TRIPOS>ATOM
      1 O         143.7813  142.1785  164.7549 O.2     1  UNL1       -0.2526
      2 C         142.3411  142.5551  164.5708 C.2     1  UNL1        0.3040
      3 N         141.3993  142.5113  165.7375 N.am    1  UNL1       -0.2874
      4 N         141.8426  142.9756  163.2200 N.am    1  UNL1       -0.2642
      5 C         142.7844  143.0194  162.0533 C.3     1  UNL1        0.0954
      6 C         142.2859  143.4399  160.7025 C.3     1  UNL1        0.0309
      7 C         140.8457  143.8165  160.5184 C.3     1  UNL1        0.0827
      8 C         139.9039  143.7727  161.6850 C.3     1  UNL1        0.0309
      9 C         140.4024  143.3522  163.0358 C.3     1  UNL1        0.0954
     10 H         140.4541  142.7585  165.6166 H       1  UNL1        0.1510
     11 C         140.3472  144.2370  159.1676 C.ar    1  UNL1        0.2362
     12 N         140.5361  145.5856  158.5385 N.ar    1  UNL1       -0.1895
     13 C         139.8779  145.5647  157.1908 C.ar    1  UNL1        0.2210
     14 N         139.2823  144.2033  156.9868 N.ar    1  UNL1       -0.0544
     15 O         139.5723  143.3826  158.2085 O.2     1  UNL1       -0.3370
     16 C         139.8248  146.7052  156.2178 C.ar    1  UNL1        0.1202
     17 C         140.4446  146.5616  154.8595 C.ar    1  UNL1        0.0224
     18 C         140.3915  147.7020  153.8865 C.ar    1  UNL1        0.0031
     19 C         139.7185  148.9860  154.2719 C.ar    1  UNL1        0.0177
     20 C         139.6654  150.1264  153.2990 C.ar    1  UNL1        0.0015
     21 C         138.9924  151.4103  153.6844 C.ar    1  UNL1        0.0001
     22 C         138.3726  151.5539  155.0428 C.ar    1  UNL1        0.0015
     23 C         138.4257  150.4135  156.0157 C.ar    1  UNL1        0.0191
     24 C         139.0987  149.1296  155.6303 C.ar    1  UNL1        0.0814
     25 N         139.1518  147.9891  156.6033 N.ar    1  UNL1       -0.2422
     26 C         141.8978  142.0908  167.0884 C.3     1  UNL1        0.1054
     27 C         141.0348  141.2438  167.9760 C.3     1  UNL1        0.0636
     28 C         140.2575  140.1652  168.6704 C.3     1  UNL1        0.0164
     29 C         139.5478  140.7838  169.8381 C.3     1  UNL1        0.0014
     30 C         139.8865  142.2448  169.8654 C.3     1  UNL1        0.0014
     31 C         140.8055  142.5292  168.7145 C.3     1  UNL1        0.0164
     32 N         141.4445  140.1356  167.0519 N.3     1  UNL1       -0.2694
     33 C         140.4570  139.5703  166.0746 C.3     1  UNL1        0.1046
     34 C         140.8667  138.4620  165.1505 C.3     1  UNL1        0.1595
     35 O         142.2640  137.9192  165.2037 O.3     1  UNL1       -0.3508
     36 C         143.2516  138.4845  166.1809 C.3     1  UNL1        0.1595
     37 C         142.8419  139.5927  167.1050 C.3     1  UNL1        0.1046
@<TRIPOS>BOND
     1     1     2    2
     2     2     3   am
     3     3    26    1
     4    26    27    1
     5    27    32    1
     6    32    33    1
     7    33    34    1
     8    34    35    1
     9    35    36    1
    10    36    37    1
    11    27    28    1
    12    28    29    1
    13    29    30    1
    14    30    31    1
    15     2     4   am
    16     4     5    1
    17     5     6    1
    18     6     7    1
    19     7    11    1
    20    11    12   ar
    21    12    13   ar
    22    13    16    1
    23    16    17   ar
    24    17    18   ar
    25    18    19   ar
    26    19    20   ar
    27    20    21   ar
    28    21    22   ar
    29    22    23   ar
    30    23    24   ar
    31    24    25   ar
    32    13    14   ar
    33    14    15   ar
    34     7     8    1
    35     8     9    1
    36    31    27    1
    37     9     4    1
    38    37    32    1
    39    15    11   ar
    40    25    16   ar
    41    24    19   ar
    42     3    10    1
@<TRIPOS>MOLECULE
*****
 37 42 0 0 0
SMALL
GASTEIGER

@<TRIPOS>ATOM
      1 O         140.3428  144.3467  164.6942 O.2     1  UNL1       -0.2526
      2 C         140.6431  143.3833  163.5844 C.2     1  UNL1        0.3040
      3 N         141.0406  141.9725  163.9030 N.am    1  UNL1       -0.2874
      4 N         140.5459  143.8308  162.1560 N.am    1  UNL1       -0.2642
      5 C         140.1484  145.2416  161.8374 C.3     1  UNL1        0.0954
      6 C         140.0512  145.6890  160.4091 C.3     1  UNL1        0.0309
      7 C         140.3515  144.7256  159.2992 C.3     1  UNL1        0.0827
      8 C         140.7490  143.3148  159.6178 C.3     1  UNL1        0.0309
      9 C         140.8462  142.8674  161.0462 C.3     1  UNL1        0.0954
     10 H         141.2377  141.3402  163.1745 H       1  UNL1        0.1510
     11 C         140.2543  145.1731  157.8708 C.ar    1  UNL1        0.2362
     12 N         140.1023  146.5888  157.3987 N.ar    1  UNL1       -0.1895
     13 C         140.0461  146.5740  155.8998 C.ar    1  UNL1        0.2210
     14 N         140.1634  145.1492  155.4456 N.ar    1  UNL1       -0.0544
     15 O         140.2921  144.2834  156.6637 O.2     1  UNL1       -0.3370
     16 C         139.8985  147.7734  155.0112 C.ar    1  UNL1        0.1202
     17 C         140.3444  147.7064  153.5806 C.ar    1  UNL1        0.0224
     18 C         140.1968  148.9058  152.6920 C.ar    1  UNL1        0.0031
     19 C         139.6033  150.1723  153.2341 C.ar    1  UNL1        0.0177
     20 C         139.4558  151.3717  152.3455 C.ar    1  UNL1        0.0015
     21 C         138.8623  152.6382  152.8875 C.ar    1  UNL1        0.0001
     22 C         138.4164  152.7052  154.3181 C.ar    1  UNL1        0.0015
     23 C         138.5640  151.5058  155.2067 C.ar    1  UNL1        0.0191
     24 C         139.1574  150.2394  154.6647 C.ar    1  UNL1        0.0814
     25 N         139.3050  149.0399  155.5533 N.ar    1  UNL1       -0.2422
     26 C         141.1378  141.5250  165.3314 C.3     1  UNL1        0.1054
     27 C         141.9339  140.3030  165.6820 C.3     1  UNL1        0.0636
     28 C         142.4951  139.0256  166.2327 C.3     1  UNL1        0.0164
     29 C         143.7994  138.7567  165.5426 C.3     1  UNL1        0.0014
     30 C         144.0444  139.8681  164.5653 C.3     1  UNL1        0.0014
     31 C         142.8915  140.8237  164.6515 C.3     1  UNL1        0.0164
     32 N         140.8099  140.0378  166.6392 N.3     1  UNL1       -0.2694
     33 C         139.5442  139.3978  166.1510 C.3     1  UNL1        0.1046
     34 C         138.4202  139.1326  167.1082 C.3     1  UNL1        0.1595
     35 O         138.5619  139.5074  168.5537 O.3     1  UNL1       -0.3508
     36 C         139.8276  140.1474  169.0420 C.3     1  UNL1        0.1595
     37 C         140.9516  140.4126  168.0847 C.3     1  UNL1        0.1046
@<TRIPOS>BOND
     1     1     2    2
     2     2     3   am
     3     3    26    1
     4    26    27    1
     5    27    32    1
     6    32    33    1
     7    33    34    1
     8    34    35    1
     9    35    36    1
    10    36    37    1
    11    27    28    1
    12    28    29    1
    13    29    30    1
    14    30    31    1
    15     2     4   am
    16     4     5    1
    17     5     6    1
    18     6     7    1
    19     7    11    1
    20    11    12   ar
    21    12    13   ar
    22    13    16    1
    23    16    17   ar
    24    17    18   ar
    25    18    19   ar
    26    19    20   ar
    27    20    21   ar
    28    21    22   ar
    29    22    23   ar
    30    23    24   ar
    31    24    25   ar
    32    13    14   ar
    33    14    15   ar
    34     7     8    1
    35     8     9    1
    36    31    27    1
    37     9     4    1
    38    37    32    1
    39    15    11   ar
    40    25    16   ar
    41    24    19   ar
    42     3    10    1
@<TRIPOS>MOLECULE
*****
 37 42 0 0 0
SMALL
GASTEIGER

@<TRIPOS>ATOM
      1 O         142.3529  137.2642  155.6746 O.2     1  UNL1       -0.2526
      2 C         142.6789  136.7448  157.0435 C.2     1  UNL1        0.3040
      3 N         142.8883  135.2750  157.2578 N.am    1  UNL1       -0.2874
      4 N         142.7956  137.6951  158.1982 N.am    1  UNL1       -0.2642
      5 C         142.5862  139.1649  157.9839 C.3     1  UNL1        0.0954
      6 C         142.7029  140.1152  159.1386 C.3     1  UNL1        0.0309
      7 C         143.0289  139.5958  160.5075 C.3     1  UNL1        0.0827
      8 C         143.2383  138.1260  160.7218 C.3     1  UNL1        0.0309
      9 C         143.1216  137.1757  159.5671 C.3     1  UNL1        0.0954
     10 H         143.1023  134.9341  158.1563 H       1  UNL1        0.1510
     11 C         143.1456  140.5461  161.6621 C.ar    1  UNL1        0.2362
     12 N         142.2941  140.5418  162.8971 N.ar    1  UNL1       -0.1895
     13 C         142.7565  141.6607  163.7828 C.ar    1  UNL1        0.2210
     14 N         143.8937  142.3564  163.0952 N.ar    1  UNL1       -0.0544
     15 O         144.1342  141.6676  161.7846 O.2     1  UNL1       -0.3370
     16 C         142.1825  142.0205  165.1211 C.ar    1  UNL1        0.1202
     17 C         140.7389  142.4112  165.2374 C.ar    1  UNL1        0.0224
     18 C         140.1648  142.7710  166.5757 C.ar    1  UNL1        0.0031
     19 C         141.0343  142.7402  167.7976 C.ar    1  UNL1        0.0177
     20 C         140.4603  143.1001  169.1359 C.ar    1  UNL1        0.0015
     21 C         141.3297  143.0693  170.3577 C.ar    1  UNL1        0.0001
     22 C         142.7733  142.6787  170.2414 C.ar    1  UNL1        0.0015
     23 C         143.3474  142.3188  168.9031 C.ar    1  UNL1        0.0191
     24 C         142.4779  142.3496  167.6813 C.ar    1  UNL1        0.0814
     25 N         143.0520  141.9897  166.3429 N.ar    1  UNL1       -0.2422
     26 C         142.7716  134.3246  156.1031 C.3     1  UNL1        0.1054
     27 C         143.6217  133.0895  156.0595 C.3     1  UNL1        0.0636
     28 C         144.3466  131.8181  155.7307 C.3     1  UNL1        0.0164
     29 C         145.2161  131.4644  156.9007 C.3     1  UNL1        0.0014
     30 C         145.0286  132.5172  157.9526 C.3     1  UNL1        0.0014
     31 C         144.0433  133.5216  157.4327 C.3     1  UNL1        0.0164
     32 N         143.0225  132.9156  154.6954 N.3     1  UNL1       -0.2694
     33 C         143.2227  131.6316  153.9464 C.3     1  UNL1        0.1046
     34 C         142.6235  131.4577  152.5824 C.3     1  UNL1        0.1595
     35 O         141.8240  132.5679  151.9673 O.3     1  UNL1       -0.3508
     36 C         141.6237  133.8520  152.7164 C.3     1  UNL1        0.1595
     37 C         142.2230  134.0258  154.0804 C.3     1  UNL1        0.1046
@<TRIPOS>BOND
     1     1     2    2
     2     2     3   am
     3     3    26    1
     4    26    27    1
     5    27    32    1
     6    32    33    1
     7    33    34    1
     8    34    35    1
     9    35    36    1
    10    36    37    1
    11    27    28    1
    12    28    29    1
    13    29    30    1
    14    30    31    1
    15     2     4   am
    16     4     5    1
    17     5     6    1
    18     6     7    1
    19     7    11    1
    20    11    12   ar
    21    12    13   ar
    22    13    16    1
    23    16    17   ar
    24    17    18   ar
    25    18    19   ar
    26    19    20   ar
    27    20    21   ar
    28    21    22   ar
    29    22    23   ar
    30    23    24   ar
    31    24    25   ar
    32    13    14   ar
    33    14    15   ar
    34     7     8    1
    35     8     9    1
    36    31    27    1
    37     9     4    1
    38    37    32    1
    39    15    11   ar
    40    25    16   ar
    41    24    19   ar
    42     3    10    1
@<TRIPOS>MOLECULE
*****
 37 42 0 0 0
SMALL
GASTEIGER

@<TRIPOS>ATOM
      1 O         138.6933  140.2329  164.4791 O.2     1  UNL1       -0.2526
      2 C         139.5675  141.4070  164.1515 C.2     1  UNL1        0.3040
      3 N         140.4222  142.0262  165.2173 N.am    1  UNL1       -0.2874
      4 N         139.5869  141.9620  162.7581 N.am    1  UNL1       -0.2642
      5 C         138.7322  141.3429  161.6922 C.3     1  UNL1        0.0954
      6 C         138.7516  141.8979  160.2988 C.3     1  UNL1        0.0309
      7 C         139.6258  143.0720  159.9713 C.3     1  UNL1        0.0827
      8 C         140.4806  143.6911  161.0371 C.3     1  UNL1        0.0309
      9 C         140.4611  143.1361  162.4305 C.3     1  UNL1        0.0954
     10 H         140.9960  142.7967  165.0024 H       1  UNL1        0.1510
     11 C         139.6453  143.6269  158.5779 C.ar    1  UNL1        0.2362
     12 N         139.6658  145.0805  158.2079 N.ar    1  UNL1       -0.1895
     13 C         139.6808  145.1777  156.7112 C.ar    1  UNL1        0.2210
     14 N         139.6696  143.7842  156.1560 N.ar    1  UNL1       -0.0544
     15 O         139.6476  142.8258  157.3097 O.2     1  UNL1       -0.3370
     16 C         139.7031  146.4458  155.9102 C.ar    1  UNL1        0.1202
     17 C         140.4059  146.4838  154.5855 C.ar    1  UNL1        0.0224
     18 C         140.4282  147.7518  153.7845 C.ar    1  UNL1        0.0031
     19 C         139.7478  148.9819  154.3082 C.ar    1  UNL1        0.0177
     20 C         139.7701  150.2499  153.5072 C.ar    1  UNL1        0.0015
     21 C         139.0897  151.4798  154.0309 C.ar    1  UNL1        0.0001
     22 C         138.3869  151.4417  155.3555 C.ar    1  UNL1        0.0015
     23 C         138.3646  150.1737  156.1565 C.ar    1  UNL1        0.0191
     24 C         139.0450  148.9438  155.6328 C.ar    1  UNL1        0.0814
     25 N         139.0227  147.6757  156.4338 N.ar    1  UNL1       -0.2422
     26 C         140.4028  141.4712  166.6108 C.3     1  UNL1        0.1054
     27 C         141.5266  141.7776  167.5559 C.3     1  UNL1        0.0636
     28 C         142.8187  141.9038  168.3073 C.3     1  UNL1        0.0164
     29 C         142.5773  142.7801  169.5006 C.3     1  UNL1        0.0014
     30 C         141.1360  143.1955  169.4866 C.3     1  UNL1        0.0014
     31 C         140.4866  142.5759  168.2848 C.3     1  UNL1        0.0164
     32 N         142.3316  140.9152  166.6295 N.3     1  UNL1       -0.2694
     33 C         143.3371  141.5394  165.7079 C.3     1  UNL1        0.1046
     34 C         144.1421  140.6770  164.7814 C.3     1  UNL1        0.1595
     35 O         143.9416  139.1905  164.7766 O.3     1  UNL1       -0.3508
     36 C         142.9361  138.5663  165.6982 C.3     1  UNL1        0.1595
     37 C         142.1311  139.4287  166.6246 C.3     1  UNL1        0.1046
@<TRIPOS>BOND
     1     1     2    2
     2     2     3   am
     3     3    26    1
     4    26    27    1
     5    27    32    1
     6    32    33    1
     7    33    34    1
     8    34    35    1
     9    35    36    1
    10    36    37    1
    11    27    28    1
    12    28    29    1
    13    29    30    1
    14    30    31    1
    15     2     4   am
    16     4     5    1
    17     5     6    1
    18     6     7    1
    19     7    11    1
    20    11    12   ar
    21    12    13   ar
    22    13    16    1
    23    16    17   ar
    24    17    18   ar
    25    18    19   ar
    26    19    20   ar
    27    20    21   ar
    28    21    22   ar
    29    22    23   ar
    30    23    24   ar
    31    24    25   ar
    32    13    14   ar
    33    14    15   ar
    34     7     8    1
    35     8     9    1
    36    31    27    1
    37     9     4    1
    38    37    32    1
    39    15    11   ar
    40    25    16   ar
    41    24    19   ar
    42     3    10    1
