@<TRIPOS>MOLECULE
*****
 26 28 0 0 0
SMALL
GASTEIGER

@<TRIPOS>ATOM
      1 C         142.2277  138.1041  165.2728 C.3     1  UNL1        0.1167
      2 C         140.8469  137.8563  164.7420 C.3     1  UNL1        0.1112
      3 O         138.1115  138.6518  165.6825 O.2     1  UNL1       -0.2747
      4 C         138.7360  139.3535  164.5131 C.2     1  UNL1        0.2270
      5 N         140.1037  138.9557  164.0428 N.am    1  UNL1       -0.3024
      6 H         140.5136  139.4162  163.2752 H       1  UNL1        0.1495
      7 C         137.9928  140.4529  163.8139 C.3     1  UNL1        0.1113
      8 C         138.3010  141.8863  164.1311 C.ar    1  UNL1       -0.0131
      9 C         137.6254  142.9857  163.3664 C.ar    1  UNL1       -0.0038
     10 C         137.9337  144.4190  163.6837 C.ar    1  UNL1       -0.0003
     11 C         138.9176  144.7528  164.7656 C.ar    1  UNL1       -0.0000
     12 C         139.5932  143.6534  165.5302 C.ar    1  UNL1       -0.0003
     13 C         139.2849  142.2202  165.2130 C.ar    1  UNL1       -0.0038
     14 N         142.5193  139.3532  166.0505 N.pl3   1  UNL1       -0.2851
     15 C         141.9533  139.5281  167.4285 C.ar    1  UNL1        0.0516
     16 C         140.5644  140.0661  167.6060 C.ar    1  UNL1        0.0148
     17 C         139.9983  140.2410  168.9841 C.ar    1  UNL1        0.0013
     18 C         140.8211  139.8779  170.1846 C.ar    1  UNL1        0.0001
     19 C         142.2100  139.3398  170.0070 C.ar    1  UNL1        0.0013
     20 C         142.7761  139.1650  168.6290 C.ar    1  UNL1        0.0148
     21 C         143.3770  140.4274  165.4501 C.ar    1  UNL1        0.0516
     22 C         143.1323  141.8655  165.7998 C.ar    1  UNL1        0.0148
     23 C         143.9900  142.9397  165.1994 C.ar    1  UNL1        0.0013
     24 C         145.0923  142.5758  164.2492 C.ar    1  UNL1        0.0001
     25 C         145.3368  141.1378  163.8995 C.ar    1  UNL1        0.0013
     26 C         144.4792  140.0636  164.5000 C.ar    1  UNL1        0.0148
@<TRIPOS>BOND
     1     3     4    2
     2     4     7    1
     3     7     8    1
     4     8     9   ar
     5     9    10   ar
     6    10    11   ar
     7    11    12   ar
     8    12    13   ar
     9     4     5   am
    10     5     2    1
    11     2     1    1
    12     1    14    1
    13    14    15    1
    14    15    16   ar
    15    16    17   ar
    16    17    18   ar
    17    18    19   ar
    18    19    20   ar
    19    14    21    1
    20    21    22   ar
    21    22    23   ar
    22    23    24   ar
    23    24    25   ar
    24    25    26   ar
    25    13     8   ar
    26    20    15   ar
    27    26    21   ar
    28     5     6    1
@<TRIPOS>MOLECULE
*****
 26 28 0 0 0
SMALL
GASTEIGER

@<TRIPOS>ATOM
      1 C         142.2772  138.0719  165.3130 C.3     1  UNL1        0.1167
      2 C         140.9253  137.8235  164.7126 C.3     1  UNL1        0.1112
      3 O         138.1597  138.5889  165.5879 O.2     1  UNL1       -0.2747
      4 C         138.8159  139.3179  164.4530 C.2     1  UNL1        0.2270
      5 N         140.1987  138.9352  164.0154 N.am    1  UNL1       -0.3024
      6 H         140.6293  139.4136  163.2705 H       1  UNL1        0.1495
      7 C         138.0892  140.4295  163.7557 C.3     1  UNL1        0.1113
      8 C         138.3536  141.8553  164.1398 C.ar    1  UNL1       -0.0131
      9 C         137.5854  142.9637  163.4832 C.ar    1  UNL1       -0.0038
     10 C         137.8497  144.3893  163.8673 C.ar    1  UNL1       -0.0003
     11 C         138.8822  144.7066  164.9081 C.ar    1  UNL1       -0.0000
     12 C         139.6504  143.5982  165.5648 C.ar    1  UNL1       -0.0003
     13 C         139.3861  142.1725  165.1806 C.ar    1  UNL1       -0.0038
     14 N         142.5372  139.3352  166.0789 N.pl3   1  UNL1       -0.2851
     15 C         143.3822  140.4177  165.4755 C.ar    1  UNL1        0.0516
     16 C         144.4629  140.0673  164.4961 C.ar    1  UNL1        0.0148
     17 C         145.3081  141.1498  163.8927 C.ar    1  UNL1        0.0013
     18 C         145.0724  142.5826  164.2687 C.ar    1  UNL1        0.0001
     19 C         143.9916  142.9330  165.2481 C.ar    1  UNL1        0.0013
     20 C         143.1466  141.8505  165.8515 C.ar    1  UNL1        0.0148
     21 C         141.9521  139.5159  167.4482 C.ar    1  UNL1        0.0516
     22 C         142.7650  139.1757  168.6621 C.ar    1  UNL1        0.0148
     23 C         142.1799  139.3564  170.0314 C.ar    1  UNL1        0.0013
     24 C         140.7819  139.8774  170.1868 C.ar    1  UNL1        0.0001
     25 C         139.9690  140.2177  168.9730 C.ar    1  UNL1        0.0013
     26 C         140.5541  140.0370  167.6037 C.ar    1  UNL1        0.0148
@<TRIPOS>BOND
     1     3     4    2
     2     4     7    1
     3     7     8    1
     4     8     9   ar
     5     9    10   ar
     6    10    11   ar
     7    11    12   ar
     8    12    13   ar
     9     4     5   am
    10     5     2    1
    11     2     1    1
    12     1    14    1
    13    14    15    1
    14    15    16   ar
    15    16    17   ar
    16    17    18   ar
    17    18    19   ar
    18    19    20   ar
    19    14    21    1
    20    21    22   ar
    21    22    23   ar
    22    23    24   ar
    23    24    25   ar
    24    25    26   ar
    25    13     8   ar
    26    20    15   ar
    27    26    21   ar
    28     5     6    1
@<TRIPOS>MOLECULE
*****
 26 28 0 0 0
SMALL
GASTEIGER

@<TRIPOS>ATOM
      1 C         143.0170  140.2890  165.9568 C.3     1  UNL1        0.1167
      2 C         141.9413  139.2629  165.7566 C.3     1  UNL1        0.1112
      3 O         139.3392  139.6398  167.2012 O.2     1  UNL1       -0.2747
      4 C         139.4006  139.8042  165.7115 C.2     1  UNL1        0.2270
      5 N         140.7018  139.6158  164.9892 N.am    1  UNL1       -0.3024
      6 H         140.7422  139.7237  164.0114 H       1  UNL1        0.1495
      7 C         138.1611  140.1571  164.9441 C.3     1  UNL1        0.1113
      8 C         138.0792  141.4632  164.2109 C.ar    1  UNL1       -0.0131
      9 C         137.9830  141.4784  162.7141 C.ar    1  UNL1       -0.0038
     10 C         137.9011  142.7844  161.9811 C.ar    1  UNL1       -0.0003
     11 C         137.9154  144.0754  162.7448 C.ar    1  UNL1       -0.0000
     12 C         138.0116  144.0602  164.2416 C.ar    1  UNL1       -0.0003
     13 C         138.0935  142.7542  164.9747 C.ar    1  UNL1       -0.0038
     14 N         142.6519  141.7322  166.1413 N.pl3   1  UNL1       -0.2851
     15 C         142.7173  142.6770  164.9780 C.ar    1  UNL1        0.0516
     16 C         141.5966  142.7187  163.9819 C.ar    1  UNL1        0.0148
     17 C         141.6619  143.6635  162.8186 C.ar    1  UNL1        0.0013
     18 C         142.8480  144.5665  162.6515 C.ar    1  UNL1        0.0001
     19 C         143.9687  144.5247  163.6477 C.ar    1  UNL1        0.0013
     20 C         143.9033  143.5799  164.8109 C.ar    1  UNL1        0.0148
     21 C         142.2214  142.2306  167.4890 C.ar    1  UNL1        0.0516
     22 C         143.2032  142.2711  168.6224 C.ar    1  UNL1        0.0148
     23 C         142.7727  142.7694  169.9701 C.ar    1  UNL1        0.0013
     24 C         141.3604  143.2273  170.1844 C.ar    1  UNL1        0.0001
     25 C         140.3787  143.1868  169.0510 C.ar    1  UNL1        0.0013
     26 C         140.8092  142.6885  167.7033 C.ar    1  UNL1        0.0148
@<TRIPOS>BOND
     1     3     4    2
     2     4     7    1
     3     7     8    1
     4     8     9   ar
     5     9    10   ar
     6    10    11   ar
     7    11    12   ar
     8    12    13   ar
     9     4     5   am
    10     5     2    1
    11     2     1    1
    12     1    14    1
    13    14    15    1
    14    15    16   ar
    15    16    17   ar
    16    17    18   ar
    17    18    19   ar
    18    19    20   ar
    19    14    21    1
    20    21    22   ar
    21    22    23   ar
    22    23    24   ar
    23    24    25   ar
    24    25    26   ar
    25    13     8   ar
    26    20    15   ar
    27    26    21   ar
    28     5     6    1
@<TRIPOS>MOLECULE
*****
 26 28 0 0 0
SMALL
GASTEIGER

@<TRIPOS>ATOM
      1 C         140.0904  139.9748  166.3493 C.3     1  UNL1        0.1167
      2 C         141.0357  139.2233  165.4596 C.3     1  UNL1        0.1112
      3 O         143.8973  138.5274  166.0315 O.2     1  UNL1       -0.2747
      4 C         143.5711  139.6040  165.0393 C.2     1  UNL1        0.2270
      5 N         142.1403  139.9519  164.7533 N.am    1  UNL1       -0.3024
      6 H         141.9262  140.6585  164.1021 H       1  UNL1        0.1495
      7 C         144.6757  140.3327  164.3330 C.3     1  UNL1        0.1113
      8 C         144.4765  141.7531  163.8939 C.ar    1  UNL1       -0.0131
      9 C         144.2610  142.8305  164.9150 C.ar    1  UNL1       -0.0038
     10 C         144.0618  144.2509  164.4760 C.ar    1  UNL1       -0.0003
     11 C         144.0780  144.5938  163.0158 C.ar    1  UNL1       -0.0000
     12 C         144.2935  143.5164  161.9947 C.ar    1  UNL1       -0.0003
     13 C         144.4927  142.0961  162.4337 C.ar    1  UNL1       -0.0038
     14 N         140.2518  141.4545  166.5353 N.pl3   1  UNL1       -0.2851
     15 C         139.6634  142.4048  165.5350 C.ar    1  UNL1        0.0516
     16 C         138.3595  142.0798  164.8687 C.ar    1  UNL1        0.0148
     17 C         137.7710  143.0301  163.8682 C.ar    1  UNL1        0.0013
     18 C         138.4866  144.3053  163.5342 C.ar    1  UNL1        0.0001
     19 C         139.7906  144.6303  164.2006 C.ar    1  UNL1        0.0013
     20 C         140.3790  143.6801  165.2009 C.ar    1  UNL1        0.0148
     21 C         141.0015  141.9839  167.7218 C.ar    1  UNL1        0.0516
     22 C         140.2851  142.7938  168.7614 C.ar    1  UNL1        0.0148
     23 C         141.0348  143.3232  169.9478 C.ar    1  UNL1        0.0013
     24 C         142.5011  143.0425  170.0947 C.ar    1  UNL1        0.0001
     25 C         143.2175  142.2326  169.0551 C.ar    1  UNL1        0.0013
     26 C         142.4677  141.7032  167.8687 C.ar    1  UNL1        0.0148
@<TRIPOS>BOND
     1     3     4    2
     2     4     7    1
     3     7     8    1
     4     8     9   ar
     5     9    10   ar
     6    10    11   ar
     7    11    12   ar
     8    12    13   ar
     9     4     5   am
    10     5     2    1
    11     2     1    1
    12     1    14    1
    13    14    15    1
    14    15    16   ar
    15    16    17   ar
    16    17    18   ar
    17    18    19   ar
    18    19    20   ar
    19    14    21    1
    20    21    22   ar
    21    22    23   ar
    22    23    24   ar
    23    24    25   ar
    24    25    26   ar
    25    13     8   ar
    26    20    15   ar
    27    26    21   ar
    28     5     6    1
@<TRIPOS>MOLECULE
*****
 26 28 0 0 0
SMALL
GASTEIGER

@<TRIPOS>ATOM
      1 C         140.3361  139.8191  166.4338 C.3     1  UNL1        0.1167
      2 C         141.1918  139.1475  165.4011 C.3     1  UNL1        0.1112
      3 O         144.0726  138.5595  165.9973 O.2     1  UNL1       -0.2747
      4 C         143.7146  139.6256  165.0047 C.2     1  UNL1        0.2270
      5 N         142.2742  139.9196  164.7066 N.am    1  UNL1       -0.3024
      6 H         142.0392  140.6193  164.0552 H       1  UNL1        0.1495
      7 C         144.7970  140.3977  164.3102 C.3     1  UNL1        0.1113
      8 C         144.5534  141.8163  163.8877 C.ar    1  UNL1       -0.0131
      9 C         144.2546  142.8648  164.9178 C.ar    1  UNL1       -0.0038
     10 C         144.0111  144.2833  164.4953 C.ar    1  UNL1       -0.0003
     11 C         144.0662  144.6532  163.0427 C.ar    1  UNL1       -0.0000
     12 C         144.3649  143.6046  162.0126 C.ar    1  UNL1       -0.0003
     13 C         144.6085  142.1861  162.4351 C.ar    1  UNL1       -0.0038
     14 N         140.4071  141.3065  166.6148 N.pl3   1  UNL1       -0.2851
     15 C         141.1384  141.8851  167.7896 C.ar    1  UNL1        0.0516
     16 C         140.4051  142.7338  168.7856 C.ar    1  UNL1        0.0148
     17 C         141.1364  143.3125  169.9605 C.ar    1  UNL1        0.0013
     18 C         142.6010  143.0423  170.1395 C.ar    1  UNL1        0.0001
     19 C         143.3343  142.1935  169.1435 C.ar    1  UNL1        0.0013
     20 C         142.6029  141.6149  167.9686 C.ar    1  UNL1        0.0148
     21 C         139.7467  142.2153  165.6207 C.ar    1  UNL1        0.0516
     22 C         140.3837  143.5256  165.2637 C.ar    1  UNL1        0.0148
     23 C         139.7234  144.4343  164.2696 C.ar    1  UNL1        0.0013
     24 C         138.4260  144.0328  163.6327 C.ar    1  UNL1        0.0001
     25 C         137.7890  142.7226  163.9897 C.ar    1  UNL1        0.0013
     26 C         138.4494  141.8138  164.9838 C.ar    1  UNL1        0.0148
@<TRIPOS>BOND
     1     3     4    2
     2     4     7    1
     3     7     8    1
     4     8     9   ar
     5     9    10   ar
     6    10    11   ar
     7    11    12   ar
     8    12    13   ar
     9     4     5   am
    10     5     2    1
    11     2     1    1
    12     1    14    1
    13    14    15    1
    14    15    16   ar
    15    16    17   ar
    16    17    18   ar
    17    18    19   ar
    18    19    20   ar
    19    14    21    1
    20    21    22   ar
    21    22    23   ar
    22    23    24   ar
    23    24    25   ar
    24    25    26   ar
    25    13     8   ar
    26    20    15   ar
    27    26    21   ar
    28     5     6    1
@<TRIPOS>MOLECULE
*****
 26 28 0 0 0
SMALL
GASTEIGER

@<TRIPOS>ATOM
      1 C         138.3839  139.1427  165.5140 C.3     1  UNL1        0.1167
      2 C         138.8960  138.3614  164.3405 C.3     1  UNL1        0.1112
      3 O         141.6043  137.1108  164.6584 O.2     1  UNL1       -0.2747
      4 C         141.4127  138.2524  163.7044 C.2     1  UNL1        0.2270
      5 N         140.0585  138.8777  163.5455 N.am    1  UNL1       -0.3024
      6 H         139.9327  139.6270  162.9194 H       1  UNL1        0.1495
      7 C         142.5752  138.7687  162.9095 C.3     1  UNL1        0.1113
      8 C         143.3291  139.9766  163.3813 C.ar    1  UNL1       -0.0131
      9 C         144.8160  139.9076  163.5665 C.ar    1  UNL1       -0.0038
     10 C         145.5699  141.1155  164.0383 C.ar    1  UNL1       -0.0003
     11 C         144.8369  142.3924  164.3249 C.ar    1  UNL1       -0.0000
     12 C         143.3500  142.4614  164.1398 C.ar    1  UNL1       -0.0003
     13 C         142.5961  141.2535  163.6680 C.ar    1  UNL1       -0.0038
     14 N         139.1827  140.2903  166.0573 N.pl3   1  UNL1       -0.2851
     15 C         140.1404  140.0677  167.1901 C.ar    1  UNL1        0.0516
     16 C         139.6569  140.1484  168.6077 C.ar    1  UNL1        0.0148
     17 C         140.6146  139.9259  169.7406 C.ar    1  UNL1        0.0013
     18 C         142.0558  139.6227  169.4557 C.ar    1  UNL1        0.0001
     19 C         142.5392  139.5420  168.0380 C.ar    1  UNL1        0.0013
     20 C         141.5815  139.7646  166.9052 C.ar    1  UNL1        0.0148
     21 C         139.0237  141.6604  165.4677 C.ar    1  UNL1        0.0516
     22 C         139.9549  142.7642  165.8736 C.ar    1  UNL1        0.0148
     23 C         139.7959  144.1343  165.2840 C.ar    1  UNL1        0.0013
     24 C         138.7058  144.4005  164.2885 C.ar    1  UNL1        0.0001
     25 C         137.7748  143.2967  163.8827 C.ar    1  UNL1        0.0013
     26 C         137.9337  141.9267  164.4723 C.ar    1  UNL1        0.0148
@<TRIPOS>BOND
     1     3     4    2
     2     4     7    1
     3     7     8    1
     4     8     9   ar
     5     9    10   ar
     6    10    11   ar
     7    11    12   ar
     8    12    13   ar
     9     4     5   am
    10     5     2    1
    11     2     1    1
    12     1    14    1
    13    14    15    1
    14    15    16   ar
    15    16    17   ar
    16    17    18   ar
    17    18    19   ar
    18    19    20   ar
    19    14    21    1
    20    21    22   ar
    21    22    23   ar
    22    23    24   ar
    23    24    25   ar
    24    25    26   ar
    25    13     8   ar
    26    20    15   ar
    27    26    21   ar
    28     5     6    1
@<TRIPOS>MOLECULE
*****
 26 28 0 0 0
SMALL
GASTEIGER

@<TRIPOS>ATOM
      1 C         138.9749  140.5398  165.4755 C.3     1  UNL1        0.1167
      2 C         138.3030  141.6953  164.7949 C.3     1  UNL1        0.1112
      3 O         138.4731  144.6285  165.4014 O.2     1  UNL1       -0.2747
      4 C         139.1796  144.0683  164.2026 C.2     1  UNL1        0.2270
      5 N         139.0945  142.6017  163.8994 N.am    1  UNL1       -0.3024
      6 H         139.5582  142.2340  163.1126 H       1  UNL1        0.1495
      7 C         139.9711  144.9746  163.3071 C.3     1  UNL1        0.1113
      8 C         141.4140  144.6769  163.0248 C.ar    1  UNL1       -0.0131
      9 C         142.4834  145.2359  163.9159 C.ar    1  UNL1       -0.0038
     10 C         143.9261  144.9382  163.6336 C.ar    1  UNL1       -0.0003
     11 C         144.2996  144.0815  162.4603 C.ar    1  UNL1       -0.0000
     12 C         143.2302  143.5226  161.5692 C.ar    1  UNL1       -0.0003
     13 C         141.7874  143.8203  161.8515 C.ar    1  UNL1       -0.0038
     14 N         140.2124  140.7669  166.2923 N.pl3   1  UNL1       -0.2851
     15 C         140.1076  141.3751  167.6594 C.ar    1  UNL1        0.0516
     16 C         139.6192  140.5490  168.8123 C.ar    1  UNL1        0.0148
     17 C         139.5144  141.1572  170.1795 C.ar    1  UNL1        0.0013
     18 C         139.8979  142.5914  170.3938 C.ar    1  UNL1        0.0001
     19 C         140.3863  143.4175  169.2408 C.ar    1  UNL1        0.0013
     20 C         140.4911  142.8093  167.8737 C.ar    1  UNL1        0.0148
     21 C         141.5548  140.3857  165.7419 C.ar    1  UNL1        0.0516
     22 C         142.3279  141.3629  164.9067 C.ar    1  UNL1        0.0148
     23 C         143.6702  140.9818  164.3563 C.ar    1  UNL1        0.0013
     24 C         144.2394  139.6234  164.6411 C.ar    1  UNL1        0.0001
     25 C         143.4663  138.6464  165.4763 C.ar    1  UNL1        0.0013
     26 C         142.1240  139.0275  166.0267 C.ar    1  UNL1        0.0148
@<TRIPOS>BOND
     1     3     4    2
     2     4     7    1
     3     7     8    1
     4     8     9   ar
     5     9    10   ar
     6    10    11   ar
     7    11    12   ar
     8    12    13   ar
     9     4     5   am
    10     5     2    1
    11     2     1    1
    12     1    14    1
    13    14    15    1
    14    15    16   ar
    15    16    17   ar
    16    17    18   ar
    17    18    19   ar
    18    19    20   ar
    19    14    21    1
    20    21    22   ar
    21    22    23   ar
    22    23    24   ar
    23    24    25   ar
    24    25    26   ar
    25    13     8   ar
    26    20    15   ar
    27    26    21   ar
    28     5     6    1
@<TRIPOS>MOLECULE
*****
 26 28 0 0 0
SMALL
GASTEIGER

@<TRIPOS>ATOM
      1 C         141.2039  137.5106  163.1726 C.3     1  UNL1        0.1167
      2 C         140.7471  137.8424  161.7830 C.3     1  UNL1        0.1112
      3 O         137.7486  137.8721  161.8742 O.2     1  UNL1       -0.2747
      4 C         138.5022  139.1326  161.5687 C.2     1  UNL1        0.2270
      5 N         140.0015  139.1177  161.5231 N.am    1  UNL1       -0.3024
      6 H         140.4961  139.9450  161.3226 H       1  UNL1        0.1495
      7 C         137.7565  140.4079  161.3088 C.3     1  UNL1        0.1113
      8 C         137.8543  141.5455  162.2817 C.ar    1  UNL1       -0.0131
      9 C         137.9722  142.9539  161.7794 C.ar    1  UNL1       -0.0038
     10 C         138.0699  144.0914  162.7523 C.ar    1  UNL1       -0.0003
     11 C         138.0498  143.8204  164.2275 C.ar    1  UNL1       -0.0000
     12 C         137.9319  142.4120  164.7298 C.ar    1  UNL1       -0.0003
     13 C         137.8341  141.2745  163.7569 C.ar    1  UNL1       -0.0038
     14 N         141.4026  138.6057  164.1783 N.pl3   1  UNL1       -0.2851
     15 C         140.3975  138.8103  165.2727 C.ar    1  UNL1        0.0516
     16 C         139.0774  138.1000  165.2210 C.ar    1  UNL1        0.0148
     17 C         138.0722  138.3046  166.3155 C.ar    1  UNL1        0.0013
     18 C         138.3871  139.2196  167.4616 C.ar    1  UNL1        0.0001
     19 C         139.7073  139.9300  167.5132 C.ar    1  UNL1        0.0013
     20 C         140.7124  139.7254  166.4188 C.ar    1  UNL1        0.0148
     21 C         142.6065  139.4961  164.0896 C.ar    1  UNL1        0.0516
     22 C         142.4529  140.9241  163.6568 C.ar    1  UNL1        0.0148
     23 C         143.6568  141.8145  163.5680 C.ar    1  UNL1        0.0013
     24 C         145.0143  141.2769  163.9120 C.ar    1  UNL1        0.0001
     25 C         145.1678  139.8489  164.3448 C.ar    1  UNL1        0.0013
     26 C         143.9639  138.9585  164.4335 C.ar    1  UNL1        0.0148
@<TRIPOS>BOND
     1     3     4    2
     2     4     7    1
     3     7     8    1
     4     8     9   ar
     5     9    10   ar
     6    10    11   ar
     7    11    12   ar
     8    12    13   ar
     9     4     5   am
    10     5     2    1
    11     2     1    1
    12     1    14    1
    13    14    15    1
    14    15    16   ar
    15    16    17   ar
    16    17    18   ar
    17    18    19   ar
    18    19    20   ar
    19    14    21    1
    20    21    22   ar
    21    22    23   ar
    22    23    24   ar
    23    24    25   ar
    24    25    26   ar
    25    13     8   ar
    26    20    15   ar
    27    26    21   ar
    28     5     6    1
@<TRIPOS>MOLECULE
*****
 26 28 0 0 0
SMALL
GASTEIGER

@<TRIPOS>ATOM
      1 C         138.3582  139.2140  165.4723 C.3     1  UNL1        0.1167
      2 C         138.7482  138.4856  164.2204 C.3     1  UNL1        0.1112
      3 O         141.2582  136.8744  164.5431 O.2     1  UNL1       -0.2747
      4 C         141.2473  138.0734  163.6418 C.2     1  UNL1        0.2270
      5 N         139.9923  138.8790  163.4805 N.am    1  UNL1       -0.3024
      6 H         139.9851  139.6659  162.8890 H       1  UNL1        0.1495
      7 C         142.4914  138.4668  162.9019 C.3     1  UNL1        0.1113
      8 C         143.2602  139.6846  163.3216 C.ar    1  UNL1       -0.0131
      9 C         142.5776  141.0189  163.3810 C.ar    1  UNL1       -0.0038
     10 C         143.3463  142.2366  163.8006 C.ar    1  UNL1       -0.0003
     11 C         144.7978  142.1200  164.1609 C.ar    1  UNL1       -0.0000
     12 C         145.4804  140.7856  164.1015 C.ar    1  UNL1       -0.0003
     13 C         144.7116  139.5680  163.6819 C.ar    1  UNL1       -0.0038
     14 N         139.2146  140.3329  165.9867 N.pl3   1  UNL1       -0.2851
     15 C         139.0638  141.7139  165.4211 C.ar    1  UNL1        0.0516
     16 C         140.0537  142.7828  165.7782 C.ar    1  UNL1        0.0148
     17 C         139.9029  144.1639  165.2126 C.ar    1  UNL1        0.0013
     18 C         138.7622  144.4760  164.2899 C.ar    1  UNL1        0.0001
     19 C         137.7723  143.4070  163.9328 C.ar    1  UNL1        0.0013
     20 C         137.9231  142.0260  164.4984 C.ar    1  UNL1        0.0148
     21 C         140.2219  140.0706  167.0669 C.ar    1  UNL1        0.0516
     22 C         139.8191  140.1706  168.5084 C.ar    1  UNL1        0.0148
     23 C         140.8264  139.9084  169.5885 C.ar    1  UNL1        0.0013
     24 C         142.2365  139.5461  169.2271 C.ar    1  UNL1        0.0001
     25 C         142.6392  139.4461  167.7857 C.ar    1  UNL1        0.0013
     26 C         141.6319  139.7084  166.7055 C.ar    1  UNL1        0.0148
@<TRIPOS>BOND
     1     3     4    2
     2     4     7    1
     3     7     8    1
     4     8     9   ar
     5     9    10   ar
     6    10    11   ar
     7    11    12   ar
     8    12    13   ar
     9     4     5   am
    10     5     2    1
    11     2     1    1
    12     1    14    1
    13    14    15    1
    14    15    16   ar
    15    16    17   ar
    16    17    18   ar
    17    18    19   ar
    18    19    20   ar
    19    14    21    1
    20    21    22   ar
    21    22    23   ar
    22    23    24   ar
    23    24    25   ar
    24    25    26   ar
    25    13     8   ar
    26    20    15   ar
    27    26    21   ar
    28     5     6    1
