@<TRIPOS>MOLECULE
*****
 26 29 0 0 0
SMALL
GASTEIGER

@<TRIPOS>ATOM
      1 N         139.6386  139.7534  166.5763 N.am    1  UNL1       -0.2707
      2 C         138.5500  139.0080  165.8625 C.2     1  UNL1        0.2686
      3 O         137.4052  138.4273  166.6385 O.2     1  UNL1       -0.2682
      4 C         138.6063  138.8433  164.3726 C.ar    1  UNL1        0.1535
      5 C         137.9719  139.7507  163.3606 C.ar    1  UNL1        0.1012
      6 N         138.2804  139.2105  161.9958 N.ar    1  UNL1       -0.3057
      7 C         137.8410  139.8069  160.6914 C.3     1  UNL1        0.1321
      8 C         139.1054  137.9691  162.1642 C.ar    1  UNL1        0.1787
      9 N         139.3068  137.7422  163.6331 N.ar    1  UNL1       -0.2192
     10 C         140.7833  140.3340  165.8002 C.3     1  UNL1        0.0941
     11 C         139.9305  145.8742  162.3023 C.3     1  UNL1        0.0896
     12 N         140.1241  144.6165  163.0964 N.3     1  UNL1       -0.2715
     13 C         140.5827  143.2944  162.5561 C.3     1  UNL1        0.0722
     14 C         140.6351  142.3208  163.6959 C.3     1  UNL1        0.0191
     15 C         140.2090  143.0411  164.9408 C.3     1  UNL1        0.0191
     16 C         139.8932  144.4600  164.5702 C.3     1  UNL1        0.0722
     17 C         140.5897  141.5917  165.0061 C.3     1  UNL1        0.0226
     18 C         139.5823  139.9181  168.0661 C.3     1  UNL1        0.1205
     19 C         140.5144  140.8734  168.7508 C.ar    1  UNL1       -0.0013
     20 C         141.9121  140.4458  169.0876 C.ar    1  UNL1       -0.0003
     21 C         142.8442  141.4011  169.7723 C.ar    1  UNL1        0.0302
     22 C         142.3785  142.7839  170.1202 C.ar    1  UNL1        0.1506
     23 F         143.3105  143.7391  170.8049 F       1  UNL1       -0.2033
     24 C         140.9806  143.2114  169.7834 C.ar    1  UNL1        0.0848
     25 CL        140.5149  144.5941  170.1313 Cl      1  UNL1       -0.0799
     26 C         140.0486  142.2561  169.0987 C.ar    1  UNL1        0.0111
@<TRIPOS>BOND
     1    11    12    1
     2    12    13    1
     3    14    13    1
     4    14    15    1
     5    15    16    1
     6    15    17    1
     7    17    10    1
     8    10     1    1
     9     1    18    1
    10    18    19    1
    11    19    20   ar
    12    20    21   ar
    13    21    22   ar
    14    22    23    1
    15    22    24   ar
    16    24    25    1
    17    24    26   ar
    18     1     2   am
    19     2     3    2
    20     2     4    1
    21     4     5   ar
    22     5     6   ar
    23     6     7    1
    24     6     8   ar
    25     8     9   ar
    26    16    12    1
    27    26    19   ar
    28     9     4   ar
    29    17    14    1
@<TRIPOS>MOLECULE
*****
 26 29 0 0 0
SMALL
GASTEIGER

@<TRIPOS>ATOM
      1 N         139.6375  139.5915  167.3314 N.am    1  UNL1       -0.2707
      2 C         139.5472  139.9545  168.7841 C.2     1  UNL1        0.2686
      3 O         138.2524  139.7815  169.5214 O.2     1  UNL1       -0.2682
      4 C         140.7518  140.4904  169.4995 C.ar    1  UNL1        0.1535
      5 C         141.1409  141.9348  169.6111 C.ar    1  UNL1        0.1012
      6 N         142.4083  142.0131  170.4094 N.ar    1  UNL1       -0.3057
      7 C         143.1511  143.2672  170.7637 C.3     1  UNL1        0.1321
      8 C         142.8026  140.6171  170.7912 C.ar    1  UNL1        0.1787
      9 N         141.7788  139.6761  170.2289 N.ar    1  UNL1       -0.2192
     10 C         140.9322  139.7646  166.5942 C.3     1  UNL1        0.0941
     11 C         142.2883  145.4961  163.5996 C.3     1  UNL1        0.0896
     12 N         141.9805  144.1949  164.2794 N.3     1  UNL1       -0.2715
     13 C         142.9833  143.1644  164.7067 C.3     1  UNL1        0.0722
     14 C         142.2384  142.0284  165.3427 C.3     1  UNL1        0.0191
     15 C         140.7751  142.3567  165.3086 C.3     1  UNL1        0.0191
     16 C         140.6157  143.6957  164.6514 C.3     1  UNL1        0.0722
     17 C         141.2401  141.0657  165.9144 C.3     1  UNL1        0.0226
     18 C         138.4329  139.0556  166.6161 C.3     1  UNL1        0.1205
     19 C         138.4182  138.9896  165.1175 C.ar    1  UNL1       -0.0013
     20 C         138.8261  137.7268  164.4184 C.ar    1  UNL1       -0.0003
     21 C         138.8115  137.6607  162.9199 C.ar    1  UNL1        0.0302
     22 C         138.3890  138.8576  162.1206 C.ar    1  UNL1        0.1506
     23 F         138.3743  138.7916  160.6221 F       1  UNL1       -0.2033
     24 C         137.9810  140.1205  162.8198 C.ar    1  UNL1        0.0848
     25 CL        137.5585  141.3174  162.0204 Cl      1  UNL1       -0.0799
     26 C         137.9957  140.1865  164.3182 C.ar    1  UNL1        0.0111
@<TRIPOS>BOND
     1    11    12    1
     2    12    13    1
     3    14    13    1
     4    14    15    1
     5    15    16    1
     6    15    17    1
     7    17    10    1
     8    10     1    1
     9     1    18    1
    10    18    19    1
    11    19    20   ar
    12    20    21   ar
    13    21    22   ar
    14    22    23    1
    15    22    24   ar
    16    24    25    1
    17    24    26   ar
    18     1     2   am
    19     2     3    2
    20     2     4    1
    21     4     5   ar
    22     5     6   ar
    23     6     7    1
    24     6     8   ar
    25     8     9   ar
    26    16    12    1
    27    26    19   ar
    28     9     4   ar
    29    17    14    1
@<TRIPOS>MOLECULE
*****
 26 29 0 0 0
SMALL
GASTEIGER

@<TRIPOS>ATOM
      1 N         138.7060  139.7706  165.4410 N.am    1  UNL1       -0.2707
      2 C         138.8668  138.5883  164.5318 C.2     1  UNL1        0.2686
      3 O         139.0745  137.2201  165.1104 O.2     1  UNL1       -0.2682
      4 C         138.8197  138.7743  163.0442 C.ar    1  UNL1        0.1535
      5 C         139.9216  138.4494  162.0797 C.ar    1  UNL1        0.1012
      6 N         139.4454  138.7922  160.6993 N.ar    1  UNL1       -0.3057
      7 C         140.2280  138.6271  159.4302 C.3     1  UNL1        0.1321
      8 C         138.0491  139.3290  160.8106 C.ar    1  UNL1        0.1787
      9 N         137.6625  139.3180  162.2598 N.ar    1  UNL1       -0.2192
     10 C         138.4983  141.1388  164.8624 C.3     1  UNL1        0.0941
     11 C         143.6630  145.1558  163.9426 C.3     1  UNL1        0.0896
     12 N         142.4905  144.2439  164.1514 N.3     1  UNL1       -0.2715
     13 C         142.5581  142.7787  164.4656 C.3     1  UNL1        0.0722
     14 C         141.1539  142.2663  164.5911 C.3     1  UNL1        0.0191
     15 C         140.2184  143.4148  164.3544 C.3     1  UNL1        0.0191
     16 C         141.0445  144.6370  164.0827 C.3     1  UNL1        0.0722
     17 C         139.6707  142.0507  164.6536 C.3     1  UNL1        0.0226
     18 C         138.7531  139.5846  166.9287 C.3     1  UNL1        0.1205
     19 C         139.9829  139.9733  167.6945 C.ar    1  UNL1       -0.0013
     20 C         141.3414  139.7092  167.1161 C.ar    1  UNL1       -0.0003
     21 C         142.5713  140.0979  167.8820 C.ar    1  UNL1        0.0302
     22 C         142.4425  140.7507  169.2263 C.ar    1  UNL1        0.1506
     23 F         143.6722  141.1394  169.9922 F       1  UNL1       -0.2033
     24 C         141.0839  141.0148  169.8048 C.ar    1  UNL1        0.0848
     25 CL        140.9551  141.6675  171.1492 Cl      1  UNL1       -0.0799
     26 C         139.8542  140.6261  169.0389 C.ar    1  UNL1        0.0111
@<TRIPOS>BOND
     1    11    12    1
     2    12    13    1
     3    14    13    1
     4    14    15    1
     5    15    16    1
     6    15    17    1
     7    17    10    1
     8    10     1    1
     9     1    18    1
    10    18    19    1
    11    19    20   ar
    12    20    21   ar
    13    21    22   ar
    14    22    23    1
    15    22    24   ar
    16    24    25    1
    17    24    26   ar
    18     1     2   am
    19     2     3    2
    20     2     4    1
    21     4     5   ar
    22     5     6   ar
    23     6     7    1
    24     6     8   ar
    25     8     9   ar
    26    16    12    1
    27    26    19   ar
    28     9     4   ar
    29    17    14    1
@<TRIPOS>MOLECULE
*****
 26 29 0 0 0
SMALL
GASTEIGER

@<TRIPOS>ATOM
      1 N         138.3265  139.9467  164.2747 N.am    1  UNL1       -0.2707
      2 C         138.5063  138.9972  163.1274 C.2     1  UNL1        0.2686
      3 O         138.6333  137.5250  163.3850 O.2     1  UNL1       -0.2682
      4 C         138.5589  139.5200  161.7224 C.ar    1  UNL1        0.1535
      5 C         139.7833  140.0149  161.0111 C.ar    1  UNL1        0.1012
      6 N         139.3775  140.4405  159.6313 N.ar    1  UNL1       -0.3057
      7 C         140.2872  140.9997  158.5778 C.3     1  UNL1        0.1321
      8 C         137.9023  140.2087  159.4898 C.ar    1  UNL1        0.1787
      9 N         137.3964  139.6399  160.7821 N.ar    1  UNL1       -0.2192
     10 C         138.1995  141.4189  164.0171 C.3     1  UNL1        0.0941
     11 C         143.5873  145.2433  163.9804 C.3     1  UNL1        0.0896
     12 N         142.3642  144.3751  163.9887 N.3     1  UNL1       -0.2715
     13 C         142.2398  143.0333  164.6478 C.3     1  UNL1        0.0722
     14 C         140.8494  142.5251  164.4059 C.3     1  UNL1        0.0191
     15 C         140.1144  143.5528  163.5972 C.3     1  UNL1        0.0191
     16 C         141.0507  144.6961  163.3394 C.3     1  UNL1        0.0722
     17 C         139.4226  142.2871  164.0088 C.3     1  UNL1        0.0226
     18 C         138.2739  139.4238  165.6797 C.3     1  UNL1        0.1205
     19 C         139.4724  139.5511  166.5727 C.ar    1  UNL1       -0.0013
     20 C         139.3006  139.9650  168.0041 C.ar    1  UNL1       -0.0003
     21 C         140.4991  140.0923  168.8972 C.ar    1  UNL1        0.0302
     22 C         141.8695  139.8056  168.3586 C.ar    1  UNL1        0.1506
     23 F         143.0679  139.9329  169.2516 F       1  UNL1       -0.2033
     24 C         142.0413  139.3917  166.9271 C.ar    1  UNL1        0.0848
     25 CL        143.4116  139.1051  166.3886 Cl      1  UNL1       -0.0799
     26 C         140.8428  139.2645  166.0342 C.ar    1  UNL1        0.0111
@<TRIPOS>BOND
     1    11    12    1
     2    12    13    1
     3    14    13    1
     4    14    15    1
     5    15    16    1
     6    15    17    1
     7    17    10    1
     8    10     1    1
     9     1    18    1
    10    18    19    1
    11    19    20   ar
    12    20    21   ar
    13    21    22   ar
    14    22    23    1
    15    22    24   ar
    16    24    25    1
    17    24    26   ar
    18     1     2   am
    19     2     3    2
    20     2     4    1
    21     4     5   ar
    22     5     6   ar
    23     6     7    1
    24     6     8   ar
    25     8     9   ar
    26    16    12    1
    27    26    19   ar
    28     9     4   ar
    29    17    14    1
@<TRIPOS>MOLECULE
*****
 26 29 0 0 0
SMALL
GASTEIGER

@<TRIPOS>ATOM
      1 N         143.2441  140.4091  166.3598 N.am    1  UNL1       -0.2707
      2 C         142.9473  140.1817  167.8125 C.2     1  UNL1        0.2686
      3 O         142.9544  138.7893  168.3704 O.2     1  UNL1       -0.2682
      4 C         142.6434  141.3466  168.7072 C.ar    1  UNL1        0.1535
      5 C         141.3588  142.1204  168.7416 C.ar    1  UNL1        0.1012
      6 N         141.4922  143.1943  169.7802 N.ar    1  UNL1       -0.3057
      7 C         140.4427  144.2014  170.1469 C.3     1  UNL1        0.1321
      8 C         142.8592  143.0843  170.3877 C.ar    1  UNL1        0.1787
      9 N         143.5706  141.9424  169.7246 N.ar    1  UNL1       -0.2192
     10 C         143.2369  141.8014  165.8019 C.3     1  UNL1        0.0941
     11 C         137.7353  144.2380  163.0719 C.3     1  UNL1        0.0896
     12 N         138.9843  143.6849  163.6916 N.3     1  UNL1       -0.2715
     13 C         140.3841  143.9017  163.1981 C.3     1  UNL1        0.0722
     14 C         141.3177  143.1686  164.1152 C.3     1  UNL1        0.0191
     15 C         140.4949  142.4987  165.1755 C.3     1  UNL1        0.0191
     16 C         139.0527  142.8178  164.9137 C.3     1  UNL1        0.0722
     17 C         141.9880  142.3546  165.1821 C.3     1  UNL1        0.0226
     18 C         143.5480  139.2441  165.4651 C.3     1  UNL1        0.1205
     19 C         142.5477  138.8079  164.4359 C.ar    1  UNL1       -0.0013
     20 C         142.9477  138.7153  162.9932 C.ar    1  UNL1       -0.0003
     21 C         141.9474  138.2791  161.9640 C.ar    1  UNL1        0.0302
     22 C         140.5471  137.9355  162.3776 C.ar    1  UNL1        0.1506
     23 F         139.5468  137.4993  161.3484 F       1  UNL1       -0.2033
     24 C         140.1471  138.0281  163.8203 C.ar    1  UNL1        0.0848
     25 CL        138.7468  137.6845  164.2339 Cl      1  UNL1       -0.0799
     26 C         141.1474  138.4643  164.8494 C.ar    1  UNL1        0.0111
@<TRIPOS>BOND
     1    11    12    1
     2    12    13    1
     3    14    13    1
     4    14    15    1
     5    15    16    1
     6    15    17    1
     7    17    10    1
     8    10     1    1
     9     1    18    1
    10    18    19    1
    11    19    20   ar
    12    20    21   ar
    13    21    22   ar
    14    22    23    1
    15    22    24   ar
    16    24    25    1
    17    24    26   ar
    18     1     2   am
    19     2     3    2
    20     2     4    1
    21     4     5   ar
    22     5     6   ar
    23     6     7    1
    24     6     8   ar
    25     8     9   ar
    26    16    12    1
    27    26    19   ar
    28     9     4   ar
    29    17    14    1
@<TRIPOS>MOLECULE
*****
 26 29 0 0 0
SMALL
GASTEIGER

@<TRIPOS>ATOM
      1 N         139.1890  139.6219  165.4348 N.am    1  UNL1       -0.2707
      2 C         140.0451  138.7378  164.5772 C.2     1  UNL1        0.2686
      3 O         141.1120  137.8901  165.2042 O.2     1  UNL1       -0.2682
      4 C         139.8343  138.7014  163.0925 C.ar    1  UNL1        0.1535
      5 C         140.6832  139.3884  162.0643 C.ar    1  UNL1        0.1012
      6 N         140.1111  139.0831  160.7118 N.ar    1  UNL1       -0.3057
      7 C         140.6473  139.5684  159.3975 C.3     1  UNL1        0.1321
      8 C         138.9085  138.2074  160.9041 C.ar    1  UNL1        0.1787
      9 N         138.7374  137.9715  162.3754 N.ar    1  UNL1       -0.2192
     10 C         138.1222  140.4696  164.8078 C.3     1  UNL1        0.0941
     11 C         139.7228  146.1908  161.9160 C.3     1  UNL1        0.0896
     12 N         139.3594  144.8920  162.5725 N.3     1  UNL1       -0.2715
     13 C         138.9826  144.7070  164.0126 C.3     1  UNL1        0.0722
     14 C         138.6994  143.2508  164.2343 C.3     1  UNL1        0.0191
     15 C         138.9011  142.5357  162.9312 C.3     1  UNL1        0.0191
     16 C         139.3090  143.5501  161.9041 C.3     1  UNL1        0.0722
     17 C         138.4855  141.7684  164.1513 C.3     1  UNL1        0.0226
     18 C         139.3999  139.6584  166.9195 C.3     1  UNL1        0.1205
     19 C         140.5914  140.3686  167.4906 C.ar    1  UNL1       -0.0013
     20 C         141.1789  141.5460  166.7706 C.ar    1  UNL1       -0.0003
     21 C         142.3703  142.2563  167.3417 C.ar    1  UNL1        0.0302
     22 C         142.9742  141.7889  168.6328 C.ar    1  UNL1        0.1506
     23 F         144.1656  142.4991  169.2039 F       1  UNL1       -0.2033
     24 C         142.3867  140.6114  169.3527 C.ar    1  UNL1        0.0848
     25 CL        142.9906  140.1441  170.6438 Cl      1  UNL1       -0.0799
     26 C         141.1953  139.9013  168.7816 C.ar    1  UNL1        0.0111
@<TRIPOS>BOND
     1    11    12    1
     2    12    13    1
     3    14    13    1
     4    14    15    1
     5    15    16    1
     6    15    17    1
     7    17    10    1
     8    10     1    1
     9     1    18    1
    10    18    19    1
    11    19    20   ar
    12    20    21   ar
    13    21    22   ar
    14    22    23    1
    15    22    24   ar
    16    24    25    1
    17    24    26   ar
    18     1     2   am
    19     2     3    2
    20     2     4    1
    21     4     5   ar
    22     5     6   ar
    23     6     7    1
    24     6     8   ar
    25     8     9   ar
    26    16    12    1
    27    26    19   ar
    28     9     4   ar
    29    17    14    1
@<TRIPOS>MOLECULE
*****
 26 29 0 0 0
SMALL
GASTEIGER

@<TRIPOS>ATOM
      1 N         142.7303  141.7980  162.5628 N.am    1  UNL1       -0.2707
      2 C         143.0754  143.2147  162.2106 C.2     1  UNL1        0.2686
      3 O         144.4260  143.7664  162.5592 O.2     1  UNL1       -0.2682
      4 C         142.0700  144.0797  161.5100 C.ar    1  UNL1        0.1535
      5 C         141.9007  144.2093  160.0252 C.ar    1  UNL1        0.1012
      6 N         140.7834  145.1765  159.7687 N.ar    1  UNL1       -0.3057
      7 C         140.2764  145.6011  158.4223 C.3     1  UNL1        0.1321
      8 C         140.2620  145.6448  161.0950 C.ar    1  UNL1        0.1787
      9 N         141.0571  144.9669  162.1711 N.ar    1  UNL1       -0.2192
     10 C         141.3797  141.2464  162.2143 C.3     1  UNL1        0.0941
     11 C         137.6427  138.4561  166.8947 C.3     1  UNL1        0.0896
     12 N         138.4910  139.0895  165.8322 N.3     1  UNL1       -0.2715
     13 C         139.0406  140.4851  165.8581 C.3     1  UNL1        0.0722
     14 C         139.8280  140.6967  164.5991 C.3     1  UNL1        0.0191
     15 C         139.7652  139.4320  163.7949 C.3     1  UNL1        0.0191
     16 C         138.9389  138.4387  164.5570 C.3     1  UNL1        0.0722
     17 C         140.5313  140.6129  163.2768 C.3     1  UNL1        0.0226
     18 C         143.7357  140.9331  163.2634 C.3     1  UNL1        0.1205
     19 C         143.4618  140.4399  164.6533 C.ar    1  UNL1       -0.0013
     20 C         143.5041  138.9700  164.9495 C.ar    1  UNL1       -0.0003
     21 C         143.2302  138.4768  166.3394 C.ar    1  UNL1        0.0302
     22 C         142.9139  139.4535  167.4331 C.ar    1  UNL1        0.1506
     23 F         142.6400  138.9603  168.8229 F       1  UNL1       -0.2033
     24 C         142.8716  140.9234  167.1368 C.ar    1  UNL1        0.0848
     25 CL        142.5554  141.9001  168.2305 Cl      1  UNL1       -0.0799
     26 C         143.1455  141.4165  165.7470 C.ar    1  UNL1        0.0111
@<TRIPOS>BOND
     1    11    12    1
     2    12    13    1
     3    14    13    1
     4    14    15    1
     5    15    16    1
     6    15    17    1
     7    17    10    1
     8    10     1    1
     9     1    18    1
    10    18    19    1
    11    19    20   ar
    12    20    21   ar
    13    21    22   ar
    14    22    23    1
    15    22    24   ar
    16    24    25    1
    17    24    26   ar
    18     1     2   am
    19     2     3    2
    20     2     4    1
    21     4     5   ar
    22     5     6   ar
    23     6     7    1
    24     6     8   ar
    25     8     9   ar
    26    16    12    1
    27    26    19   ar
    28     9     4   ar
    29    17    14    1
@<TRIPOS>MOLECULE
*****
 26 29 0 0 0
SMALL
GASTEIGER

@<TRIPOS>ATOM
      1 N         141.5838  139.0998  166.1473 N.am    1  UNL1       -0.2707
      2 C         142.0342  139.3889  167.5486 C.2     1  UNL1        0.2686
      3 O         143.2861  138.7559  168.0797 O.2     1  UNL1       -0.2682
      4 C         141.2326  140.3110  168.4188 C.ar    1  UNL1        0.1535
      5 C         141.4528  141.7861  168.5784 C.ar    1  UNL1        0.1012
      6 N         140.4264  142.3066  169.5404 N.ar    1  UNL1       -0.3057
      7 C         140.2802  143.7306  169.9887 C.3     1  UNL1        0.1321
      8 C         139.5719  141.1531  169.9754 C.ar    1  UNL1        0.1787
      9 N         140.0701  139.9198  169.2823 N.ar    1  UNL1       -0.2192
     10 C         140.3319  139.7328  165.6162 C.3     1  UNL1        0.0941
     11 C         140.6415  145.5359  162.4723 C.3     1  UNL1        0.0896
     12 N         140.5712  144.2185  163.1861 N.3     1  UNL1       -0.2715
     13 C         140.8940  142.8777  162.5960 C.3     1  UNL1        0.0722
     14 C         140.6881  141.8411  163.6604 C.3     1  UNL1        0.0191
     15 C         140.2380  142.5412  164.9084 C.3     1  UNL1        0.0191
     16 C         140.1658  144.0105  164.6152 C.3     1  UNL1        0.0722
     17 C         140.4022  141.0502  164.9025 C.3     1  UNL1        0.0226
     18 C         142.3854  138.1777  165.2771 C.3     1  UNL1        0.1205
     19 C         142.8806  138.6485  163.9417 C.ar    1  UNL1       -0.0013
     20 C         143.8935  139.7520  163.8639 C.ar    1  UNL1       -0.0003
     21 C         144.3888  140.2228  162.5285 C.ar    1  UNL1        0.0302
     22 C         143.8710  139.5899  161.2709 C.ar    1  UNL1        0.1506
     23 F         144.3662  140.0605  159.9356 F       1  UNL1       -0.2033
     24 C         142.8581  138.4862  161.3488 C.ar    1  UNL1        0.0848
     25 CL        142.3403  137.8533  160.0913 Cl      1  UNL1       -0.0799
     26 C         142.3629  138.0156  162.6841 C.ar    1  UNL1        0.0111
@<TRIPOS>BOND
     1    11    12    1
     2    12    13    1
     3    14    13    1
     4    14    15    1
     5    15    16    1
     6    15    17    1
     7    17    10    1
     8    10     1    1
     9     1    18    1
    10    18    19    1
    11    19    20   ar
    12    20    21   ar
    13    21    22   ar
    14    22    23    1
    15    22    24   ar
    16    24    25    1
    17    24    26   ar
    18     1     2   am
    19     2     3    2
    20     2     4    1
    21     4     5   ar
    22     5     6   ar
    23     6     7    1
    24     6     8   ar
    25     8     9   ar
    26    16    12    1
    27    26    19   ar
    28     9     4   ar
    29    17    14    1
@<TRIPOS>MOLECULE
*****
 26 29 0 0 0
SMALL
GASTEIGER

@<TRIPOS>ATOM
      1 N         139.2305  143.7096  161.8729 N.am    1  UNL1       -0.2707
      2 C         139.8274  143.4143  160.5288 C.2     1  UNL1        0.2686
      3 O         141.0495  144.1543  160.0719 O.2     1  UNL1       -0.2682
      4 C         139.2021  142.3790  159.6416 C.ar    1  UNL1        0.1535
      5 C         138.2325  142.6417  158.5276 C.ar    1  UNL1        0.1012
      6 N         137.8678  141.3244  157.9102 N.ar    1  UNL1       -0.3057
      7 C         136.9245  141.1198  156.7619 C.3     1  UNL1        0.1321
      8 C         138.6120  140.2473  158.6425 C.ar    1  UNL1        0.1787
      9 N         139.4365  140.8991  159.7125 N.ar    1  UNL1       -0.2192
     10 C         138.0084  142.9696  162.3297 C.3     1  UNL1        0.0941
     11 C         138.6331  137.2871  165.6427 C.3     1  UNL1        0.0896
     12 N         138.4913  138.5771  164.8907 N.3     1  UNL1       -0.2715
     13 C         138.5805  138.7447  163.4026 C.3     1  UNL1        0.0722
     14 C         138.3797  140.1972  163.0868 C.3     1  UNL1        0.0191
     15 C         138.1663  140.9275  164.3796 C.3     1  UNL1        0.0191
     16 C         138.2353  139.9262  165.4944 C.3     1  UNL1        0.0722
     17 C         138.1502  141.6796  163.0818 C.3     1  UNL1        0.0226
     18 C         139.8558  144.7449  162.7601 C.3     1  UNL1        0.1205
     19 C         141.1479  144.4493  163.4624 C.ar    1  UNL1       -0.0013
     20 C         142.3440  145.3246  163.2322 C.ar    1  UNL1       -0.0003
     21 C         143.6361  145.0290  163.9345 C.ar    1  UNL1        0.0302
     22 C         143.7320  143.8581  164.8671 C.ar    1  UNL1        0.1506
     23 F         145.0240  143.5624  165.5694 F       1  UNL1       -0.2033
     24 C         142.5358  142.9827  165.0973 C.ar    1  UNL1        0.0848
     25 CL        142.6316  141.8118  166.0299 Cl      1  UNL1       -0.0799
     26 C         141.2438  143.2784  164.3950 C.ar    1  UNL1        0.0111
@<TRIPOS>BOND
     1    11    12    1
     2    12    13    1
     3    14    13    1
     4    14    15    1
     5    15    16    1
     6    15    17    1
     7    17    10    1
     8    10     1    1
     9     1    18    1
    10    18    19    1
    11    19    20   ar
    12    20    21   ar
    13    21    22   ar
    14    22    23    1
    15    22    24   ar
    16    24    25    1
    17    24    26   ar
    18     1     2   am
    19     2     3    2
    20     2     4    1
    21     4     5   ar
    22     5     6   ar
    23     6     7    1
    24     6     8   ar
    25     8     9   ar
    26    16    12    1
    27    26    19   ar
    28     9     4   ar
    29    17    14    1
