@<TRIPOS>MOLECULE
*****
 35 37 0 0 0
SMALL
GASTEIGER

@<TRIPOS>ATOM
      1 N         142.0308  143.3428  161.1080 N.ar    1  UNL1       -0.2891
      2 C         142.0273  144.1476  159.8422 C.ar    1  UNL1        0.2925
      3 O         143.1138  143.9527  158.8265 O.2     1  UNL1       -0.2639
      4 C         140.9374  145.1473  159.5920 C.ar    1  UNL1        0.1856
      5 N         139.8509  145.3422  160.6076 N.ar    1  UNL1       -0.2233
      6 C         139.8543  144.5374  161.8735 C.ar    1  UNL1        0.1178
      7 C         138.7678  144.7324  162.8891 C.ar    1  UNL1        0.1194
      8 N         138.7713  143.9276  164.1549 N.ar    1  UNL1       -0.2421
      9 C         139.8612  142.9278  164.4050 C.ar    1  UNL1        0.0844
     10 C         140.9477  142.7329  163.3894 C.ar    1  UNL1        0.0380
     11 C         140.9442  143.5377  162.1237 C.ar    1  UNL1        0.0833
     12 C         139.8646  142.1230  165.6709 C.ar    1  UNL1        0.0371
     13 C         139.3537  140.7128  165.6644 C.ar    1  UNL1        0.0078
     14 C         139.3571  139.9079  166.9303 C.ar    1  UNL1        0.0578
     15 C         139.8714  140.5135  168.2026 C.ar    1  UNL1        0.2250
     16 N         140.3824  141.9238  168.2090 N.ar    1  UNL1       -0.2101
     17 C         140.3789  142.7285  166.9432 C.ar    1  UNL1        0.1035
     18 O         139.8749  139.7087  169.4684 O.3     1  UNL1       -0.4561
     19 C         140.5434  140.2480  170.6981 C.3     1  UNL1        0.2542
     20 N         140.9340  145.9521  158.3261 N.pl3   1  UNL1       -0.3131
     21 H         141.4816  146.7676  158.2598 H       1  UNL1        0.1484
     22 C         140.0963  145.5145  157.1614 C.3     1  UNL1        0.1056
     23 C         139.5731  146.5307  156.1900 C.3     1  UNL1        0.0901
     24 N         139.0314  147.8370  156.6902 N.3     1  UNL1       -0.2940
     25 H         139.6655  148.1579  157.4219 H       1  UNL1        0.1234
     26 C         138.8476  148.9849  155.7424 C.3     1  UNL1        0.1008
     27 C         138.4272  150.3274  156.2629 C.3     1  UNL1        0.1542
     28 O         139.4625  151.3146  156.7142 O.3     1  UNL1       -0.3805
     29 H         139.9165  150.9709  157.4995 H       1  UNL1        0.2105
     30 C         143.1207  142.3430  161.3581 C.3     1  UNL1        0.1412
     31 C         144.4983  142.8110  161.7234 C.3     1  UNL1        0.1666
     32 O         145.5282  141.8229  162.1849 O.3     1  UNL1       -0.3517
     33 C         145.6135  141.4506  163.6354 C.3     1  UNL1        0.1422
     34 C         143.7733  140.1673  164.9458 C.3     1  UNL1        0.0027
     35 C         145.0215  140.1581  164.1140 C.3     1  UNL1        0.0321
@<TRIPOS>BOND
     1    34    35    1
     2    35    33    1
     3    33    32    1
     4    32    31    1
     5    31    30    1
     6    30     1    1
     7     1     2   ar
     8     2     3    2
     9     2     4   ar
    10     4    20    1
    11    20    22    1
    12    22    23    1
    13    23    24    1
    14    24    26    1
    15    26    27    1
    16    27    28    1
    17     4     5   ar
    18     5     6   ar
    19     6     7   ar
    20     7     8   ar
    21     8     9   ar
    22     9    12    1
    23    12    13   ar
    24    13    14   ar
    25    14    15   ar
    26    15    18    1
    27    18    19    1
    28    15    16   ar
    29    16    17   ar
    30     9    10   ar
    31    10    11   ar
    32    11     1   ar
    33    11     6   ar
    34    17    12   ar
    35    20    21    1
    36    24    25    1
    37    28    29    1
@<TRIPOS>MOLECULE
*****
 35 37 0 0 0
SMALL
GASTEIGER

@<TRIPOS>ATOM
      1 N         140.0291  141.0519  161.3116 N.ar    1  UNL1       -0.2891
      2 C         139.9326  140.5995  159.8847 C.ar    1  UNL1        0.2925
      3 O         140.2951  141.5399  158.7736 O.2     1  UNL1       -0.2639
      4 C         139.4736  139.2069  159.5688 C.ar    1  UNL1        0.1856
      5 N         139.1112  138.2665  160.6798 N.ar    1  UNL1       -0.2233
      6 C         139.2077  138.7188  162.1068 C.ar    1  UNL1        0.1178
      7 C         138.8452  137.7785  163.2178 C.ar    1  UNL1        0.1194
      8 N         138.9417  138.2309  164.6446 N.ar    1  UNL1       -0.2421
      9 C         139.4007  139.6235  164.9605 C.ar    1  UNL1        0.0844
     10 C         139.7632  140.5639  163.8495 C.ar    1  UNL1        0.0380
     11 C         139.6667  140.1115  162.4227 C.ar    1  UNL1        0.0833
     12 C         139.4972  140.0759  166.3875 C.ar    1  UNL1        0.0371
     13 C         140.3241  141.2769  166.7393 C.ar    1  UNL1        0.0078
     14 C         140.4206  141.7292  168.1663 C.ar    1  UNL1        0.0578
     15 C         139.6902  140.9804  169.2414 C.ar    1  UNL1        0.2250
     16 N         138.8633  139.7794  168.8895 N.ar    1  UNL1       -0.2101
     17 C         138.7668  139.3271  167.4626 C.ar    1  UNL1        0.1035
     18 O         139.7867  141.4327  170.6683 O.3     1  UNL1       -0.4561
     19 C         141.1213  141.7872  171.2540 C.3     1  UNL1        0.2542
     20 N         139.3771  138.7545  158.1419 N.pl3   1  UNL1       -0.3131
     21 H         138.5548  138.9216  157.6271 H       1  UNL1        0.1484
     22 C         140.5336  138.0477  157.4993 C.3     1  UNL1        0.1056
     23 C         141.9391  138.4350  157.8521 C.3     1  UNL1        0.0901
     24 N         143.0952  137.6919  157.2509 N.3     1  UNL1       -0.2940
     25 H         143.8371  137.6856  157.9508 H       1  UNL1        0.1234
     26 C         142.9193  136.2743  156.7934 C.3     1  UNL1        0.1008
     27 C         143.8352  135.7033  155.7518 C.3     1  UNL1        0.1542
     28 O         145.0301  136.4858  155.2934 O.3     1  UNL1       -0.3805
     29 H         144.7347  137.2848  154.8294 H       1  UNL1        0.2105
     30 C         140.4881  142.4445  161.6275 C.3     1  UNL1        0.1412
     31 C         139.5405  143.5980  161.4803 C.3     1  UNL1        0.1666
     32 O         138.1097  143.4522  161.9062 O.3     1  UNL1       -0.3517
     33 C         137.6065  144.1912  163.1106 C.3     1  UNL1        0.1422
     34 C         139.1235  144.5022  165.1968 C.3     1  UNL1        0.0027
     35 C         138.0300  143.7629  164.4844 C.3     1  UNL1        0.0321
@<TRIPOS>BOND
     1    34    35    1
     2    35    33    1
     3    33    32    1
     4    32    31    1
     5    31    30    1
     6    30     1    1
     7     1     2   ar
     8     2     3    2
     9     2     4   ar
    10     4    20    1
    11    20    22    1
    12    22    23    1
    13    23    24    1
    14    24    26    1
    15    26    27    1
    16    27    28    1
    17     4     5   ar
    18     5     6   ar
    19     6     7   ar
    20     7     8   ar
    21     8     9   ar
    22     9    12    1
    23    12    13   ar
    24    13    14   ar
    25    14    15   ar
    26    15    18    1
    27    18    19    1
    28    15    16   ar
    29    16    17   ar
    30     9    10   ar
    31    10    11   ar
    32    11     1   ar
    33    11     6   ar
    34    17    12   ar
    35    20    21    1
    36    24    25    1
    37    28    29    1
@<TRIPOS>MOLECULE
*****
 35 37 0 0 0
SMALL
GASTEIGER

@<TRIPOS>ATOM
      1 N         140.1686  144.6735  162.4729 N.ar    1  UNL1       -0.2891
      2 C         140.3869  145.3472  161.1506 C.ar    1  UNL1        0.2925
      3 O         139.3801  146.3328  160.6357 O.2     1  UNL1       -0.2639
      4 C         141.6120  145.0355  160.3433 C.ar    1  UNL1        0.1856
      5 N         142.6188  144.0500  160.8581 N.ar    1  UNL1       -0.2233
      6 C         142.4005  143.3762  162.1804 C.ar    1  UNL1        0.1178
      7 C         143.4073  142.3907  162.6953 C.ar    1  UNL1        0.1194
      8 N         143.1889  141.7169  164.0175 N.ar    1  UNL1       -0.2421
      9 C         141.9638  142.0287  164.8249 C.ar    1  UNL1        0.0844
     10 C         140.9570  143.0142  164.3100 C.ar    1  UNL1        0.0380
     11 C         141.1754  143.6879  162.9878 C.ar    1  UNL1        0.0833
     12 C         141.7455  141.3549  166.1472 C.ar    1  UNL1        0.0371
     13 C         140.5896  141.7595  167.0133 C.ar    1  UNL1        0.0078
     14 C         140.3713  141.0857  168.3356 C.ar    1  UNL1        0.0578
     15 C         141.3089  140.0073  168.7917 C.ar    1  UNL1        0.2250
     16 N         142.4648  139.6027  167.9255 N.ar    1  UNL1       -0.2101
     17 C         142.6830  140.2765  166.6033 C.ar    1  UNL1        0.1035
     18 O         141.0906  139.3335  170.1139 O.3     1  UNL1       -0.4561
     19 C         139.9933  139.8027  171.0227 C.3     1  UNL1        0.2542
     20 N         141.8304  145.7093  159.0210 N.pl3   1  UNL1       -0.3131
     21 H         142.4467  146.4741  158.9540 H       1  UNL1        0.1484
     22 C         141.1096  145.2179  157.8007 C.3     1  UNL1        0.1056
     23 C         141.0539  146.0709  156.5682 C.3     1  UNL1        0.0901
     24 N         140.0452  147.1764  156.4661 N.3     1  UNL1       -0.2940
     25 H         140.5487  148.0065  156.1533 H       1  UNL1        0.1234
     26 C         138.8561  147.0257  155.5643 C.3     1  UNL1        0.1008
     27 C         138.3368  145.6588  155.2300 C.3     1  UNL1        0.1542
     28 O         137.0766  145.5101  154.4300 O.3     1  UNL1       -0.3805
     29 H         136.3261  145.8478  154.9434 H       1  UNL1        0.2105
     30 C         138.9434  144.9853  163.2802 C.3     1  UNL1        0.1412
     31 C         137.6714  144.2288  163.0355 C.3     1  UNL1        0.1666
     32 O         137.5827  143.2602  161.8936 O.3     1  UNL1       -0.3517
     33 C         137.9012  141.8110  162.1130 C.3     1  UNL1        0.1422
     34 C         138.3918  140.2846  164.1573 C.3     1  UNL1        0.0027
     35 C         137.4350  141.1211  163.3606 C.3     1  UNL1        0.0321
@<TRIPOS>BOND
     1    34    35    1
     2    35    33    1
     3    33    32    1
     4    32    31    1
     5    31    30    1
     6    30     1    1
     7     1     2   ar
     8     2     3    2
     9     2     4   ar
    10     4    20    1
    11    20    22    1
    12    22    23    1
    13    23    24    1
    14    24    26    1
    15    26    27    1
    16    27    28    1
    17     4     5   ar
    18     5     6   ar
    19     6     7   ar
    20     7     8   ar
    21     8     9   ar
    22     9    12    1
    23    12    13   ar
    24    13    14   ar
    25    14    15   ar
    26    15    18    1
    27    18    19    1
    28    15    16   ar
    29    16    17   ar
    30     9    10   ar
    31    10    11   ar
    32    11     1   ar
    33    11     6   ar
    34    17    12   ar
    35    20    21    1
    36    24    25    1
    37    28    29    1
@<TRIPOS>MOLECULE
*****
 35 37 0 0 0
SMALL
GASTEIGER

@<TRIPOS>ATOM
      1 N         139.4482  140.6758  165.8083 N.ar    1  UNL1       -0.2891
      2 C         139.5493  139.9836  167.1352 C.ar    1  UNL1        0.2925
      3 O         138.4287  139.1075  167.6114 O.2     1  UNL1       -0.2639
      4 C         140.7710  140.1675  167.9859 C.ar    1  UNL1        0.1856
      5 N         141.8915  141.0436  167.5098 N.ar    1  UNL1       -0.2233
      6 C         141.7905  141.7358  166.1828 C.ar    1  UNL1        0.1178
      7 C         142.9110  142.6119  165.7067 C.ar    1  UNL1        0.1194
      8 N         142.8100  143.3041  164.3798 N.ar    1  UNL1       -0.2421
      9 C         141.5883  143.1202  163.5291 C.ar    1  UNL1        0.0844
     10 C         140.4677  142.2441  164.0053 C.ar    1  UNL1        0.0380
     11 C         140.5688  141.5519  165.3321 C.ar    1  UNL1        0.0833
     12 C         141.4873  143.8124  162.2022 C.ar    1  UNL1        0.0371
     13 C         140.3876  144.8020  161.9543 C.ar    1  UNL1        0.0078
     14 C         140.2865  145.4942  160.6274 C.ar    1  UNL1        0.0578
     15 C         141.2852  145.1968  159.5484 C.ar    1  UNL1        0.2250
     16 N         142.3849  144.2072  159.7963 N.ar    1  UNL1       -0.2101
     17 C         142.4859  143.5151  161.1232 C.ar    1  UNL1        0.1035
     18 O         141.1842  145.8890  158.2215 O.3     1  UNL1       -0.4561
     19 C         140.5860  145.1741  157.0463 C.3     1  UNL1        0.2542
     20 N         140.8720  139.4753  169.3129 N.pl3   1  UNL1       -0.3131
     21 H         140.0550  139.1959  169.7858 H       1  UNL1        0.1484
     22 C         142.2178  139.2087  169.9191 C.3     1  UNL1        0.1056
     23 C         142.8699  140.2468  170.7835 C.3     1  UNL1        0.0901
     24 N         142.0280  141.2467  171.5193 N.3     1  UNL1       -0.2940
     25 H         142.5260  141.4745  172.3798 H       1  UNL1        0.1234
     26 C         141.6701  142.5497  170.8682 C.3     1  UNL1        0.1008
     27 C         140.2534  142.8171  170.4542 C.3     1  UNL1        0.1542
     28 O         139.2096  141.7528  170.6212 O.3     1  UNL1       -0.3805
     29 H         139.4119  141.0067  170.0353 H       1  UNL1        0.2105
     30 C         138.2266  140.4919  164.9576 C.3     1  UNL1        0.1412
     31 C         138.2241  139.4697  163.8597 C.3     1  UNL1        0.1666
     32 O         138.7925  138.1036  164.1056 O.3     1  UNL1       -0.3517
     33 C         139.8207  137.5396  163.1705 C.3     1  UNL1        0.1422
     34 C         141.7309  137.9223  164.8894 C.3     1  UNL1        0.0027
     35 C         141.1989  137.2254  163.6724 C.3     1  UNL1        0.0321
@<TRIPOS>BOND
     1    34    35    1
     2    35    33    1
     3    33    32    1
     4    32    31    1
     5    31    30    1
     6    30     1    1
     7     1     2   ar
     8     2     3    2
     9     2     4   ar
    10     4    20    1
    11    20    22    1
    12    22    23    1
    13    23    24    1
    14    24    26    1
    15    26    27    1
    16    27    28    1
    17     4     5   ar
    18     5     6   ar
    19     6     7   ar
    20     7     8   ar
    21     8     9   ar
    22     9    12    1
    23    12    13   ar
    24    13    14   ar
    25    14    15   ar
    26    15    18    1
    27    18    19    1
    28    15    16   ar
    29    16    17   ar
    30     9    10   ar
    31    10    11   ar
    32    11     1   ar
    33    11     6   ar
    34    17    12   ar
    35    20    21    1
    36    24    25    1
    37    28    29    1
@<TRIPOS>MOLECULE
*****
 35 37 0 0 0
SMALL
GASTEIGER

@<TRIPOS>ATOM
      1 N         142.6504  139.7251  165.5129 N.ar    1  UNL1       -0.2891
      2 C         142.7773  139.2444  166.9281 C.ar    1  UNL1        0.2925
      3 O         143.6683  138.0808  167.2480 O.2     1  UNL1       -0.2639
      4 C         142.0132  139.9273  168.0234 C.ar    1  UNL1        0.1856
      5 N         141.1223  141.0909  167.7036 N.ar    1  UNL1       -0.2233
      6 C         140.9954  141.5716  166.2883 C.ar    1  UNL1        0.1178
      7 C         140.1044  142.7351  165.9685 C.ar    1  UNL1        0.1194
      8 N         139.9775  143.2157  164.5533 N.ar    1  UNL1       -0.2421
      9 C         140.7416  142.5328  163.4579 C.ar    1  UNL1        0.0844
     10 C         141.6326  141.3693  163.7778 C.ar    1  UNL1        0.0380
     11 C         141.7595  140.8887  165.1930 C.ar    1  UNL1        0.0833
     12 C         140.6147  143.0135  162.0427 C.ar    1  UNL1        0.0371
     13 C         141.4267  142.3718  160.9570 C.ar    1  UNL1        0.0078
     14 C         141.2998  142.8525  159.5417 C.ar    1  UNL1        0.0578
     15 C         140.3609  143.9749  159.2122 C.ar    1  UNL1        0.2250
     16 N         139.5489  144.6167  160.2980 N.ar    1  UNL1       -0.2101
     17 C         139.6758  144.1360  161.7132 C.ar    1  UNL1        0.1035
     18 O         140.2339  144.4556  157.7971 O.3     1  UNL1       -0.4561
     19 C         141.3710  145.1886  157.1491 C.3     1  UNL1        0.2542
     20 N         142.1401  139.4466  169.4387 N.pl3   1  UNL1       -0.3131
     21 H         142.9704  139.0101  169.7377 H       1  UNL1        0.1484
     22 C         141.0022  139.6311  170.3983 C.3     1  UNL1        0.1056
     23 C         140.9095  140.8824  171.2201 C.3     1  UNL1        0.0901
     24 N         142.1560  141.6290  171.5929 N.3     1  UNL1       -0.2940
     25 H         142.9056  140.9397  171.6513 H       1  UNL1        0.1234
     26 C         142.6558  142.7391  170.7167 C.3     1  UNL1        0.1008
     27 C         143.8573  142.5234  169.8450 C.3     1  UNL1        0.1542
     28 O         143.7536  142.7235  168.3620 O.3     1  UNL1       -0.3805
     29 H         143.1587  142.0558  167.9864 H       1  UNL1        0.2105
     30 C         143.4145  139.0422  164.4175 C.3     1  UNL1        0.1412
     31 C         144.8233  139.4584  164.1136 C.3     1  UNL1        0.1666
     32 O         145.0922  140.4599  163.0298 O.3     1  UNL1       -0.3517
     33 C         145.7015  141.7877  163.3699 C.3     1  UNL1        0.1422
     34 C         144.4825  143.3728  165.0286 C.3     1  UNL1        0.0027
     35 C         144.8200  142.9748  163.6224 C.3     1  UNL1        0.0321
@<TRIPOS>BOND
     1    34    35    1
     2    35    33    1
     3    33    32    1
     4    32    31    1
     5    31    30    1
     6    30     1    1
     7     1     2   ar
     8     2     3    2
     9     2     4   ar
    10     4    20    1
    11    20    22    1
    12    22    23    1
    13    23    24    1
    14    24    26    1
    15    26    27    1
    16    27    28    1
    17     4     5   ar
    18     5     6   ar
    19     6     7   ar
    20     7     8   ar
    21     8     9   ar
    22     9    12    1
    23    12    13   ar
    24    13    14   ar
    25    14    15   ar
    26    15    18    1
    27    18    19    1
    28    15    16   ar
    29    16    17   ar
    30     9    10   ar
    31    10    11   ar
    32    11     1   ar
    33    11     6   ar
    34    17    12   ar
    35    20    21    1
    36    24    25    1
    37    28    29    1
@<TRIPOS>MOLECULE
*****
 35 37 0 0 0
SMALL
GASTEIGER

@<TRIPOS>ATOM
      1 N         142.8447  139.7605  164.8390 N.ar    1  UNL1       -0.2891
      2 C         143.0777  139.1013  166.1660 C.ar    1  UNL1        0.2925
      3 O         143.8357  137.8089  166.2388 O.2     1  UNL1       -0.2639
      4 C         142.5527  139.7345  167.4204 C.ar    1  UNL1        0.1856
      5 N         141.7947  141.0268  167.3477 N.ar    1  UNL1       -0.2233
      6 C         141.5618  141.6861  166.0206 C.ar    1  UNL1        0.1178
      7 C         140.8038  142.9784  165.9479 C.ar    1  UNL1        0.1194
      8 N         140.5709  143.6376  164.6209 N.ar    1  UNL1       -0.2421
      9 C         141.0959  143.0044  163.3665 C.ar    1  UNL1        0.0844
     10 C         141.8538  141.7121  163.4392 C.ar    1  UNL1        0.0380
     11 C         142.0868  141.0529  164.7662 C.ar    1  UNL1        0.0833
     12 C         140.8629  143.6637  162.0393 C.ar    1  UNL1        0.0371
     13 C         141.4911  143.0979  160.8003 C.ar    1  UNL1        0.0078
     14 C         141.2581  143.7572  159.4732 C.ar    1  UNL1        0.0578
     15 C         140.3969  144.9822  159.3852 C.ar    1  UNL1        0.2250
     16 N         139.7687  145.5479  160.6243 N.ar    1  UNL1       -0.2101
     17 C         140.0017  144.8887  161.9514 C.ar    1  UNL1        0.1035
     18 O         140.1639  145.6415  158.0582 O.3     1  UNL1       -0.4561
     19 C         141.3251  145.9521  157.1609 C.3     1  UNL1        0.2542
     20 N         142.7857  139.0752  168.7475 N.pl3   1  UNL1       -0.3131
     21 H         143.5083  138.4143  168.8488 H       1  UNL1        0.1484
     22 C         141.9176  139.4229  169.9204 C.3     1  UNL1        0.1056
     23 C         142.3363  140.5078  170.8678 C.3     1  UNL1        0.0901
     24 N         143.2175  141.6232  170.3886 N.3     1  UNL1       -0.2940
     25 H         143.6758  141.2923  169.5396 H       1  UNL1        0.1234
     26 C         142.6238  142.9624  170.0664 C.3     1  UNL1        0.1008
     27 C         141.1581  143.2031  170.2761 C.3     1  UNL1        0.1542
     28 O         140.1640  142.6974  169.2730 O.3     1  UNL1       -0.3805
     29 H         140.2866  143.1651  168.4321 H       1  UNL1        0.2105
     30 C         143.3697  139.1273  163.5846 C.3     1  UNL1        0.1412
     31 C         142.5075  138.1785  162.8058 C.3     1  UNL1        0.1666
     32 O         141.5447  137.2792  163.5228 O.3     1  UNL1       -0.3517
     33 C         140.1050  137.6778  163.6585 C.3     1  UNL1        0.1422
     34 C         138.9086  139.1915  165.3984 C.3     1  UNL1        0.0027
     35 C         139.5045  137.8681  165.0198 C.3     1  UNL1        0.0321
@<TRIPOS>BOND
     1    34    35    1
     2    35    33    1
     3    33    32    1
     4    32    31    1
     5    31    30    1
     6    30     1    1
     7     1     2   ar
     8     2     3    2
     9     2     4   ar
    10     4    20    1
    11    20    22    1
    12    22    23    1
    13    23    24    1
    14    24    26    1
    15    26    27    1
    16    27    28    1
    17     4     5   ar
    18     5     6   ar
    19     6     7   ar
    20     7     8   ar
    21     8     9   ar
    22     9    12    1
    23    12    13   ar
    24    13    14   ar
    25    14    15   ar
    26    15    18    1
    27    18    19    1
    28    15    16   ar
    29    16    17   ar
    30     9    10   ar
    31    10    11   ar
    32    11     1   ar
    33    11     6   ar
    34    17    12   ar
    35    20    21    1
    36    24    25    1
    37    28    29    1
@<TRIPOS>MOLECULE
*****
 35 37 0 0 0
SMALL
GASTEIGER

@<TRIPOS>ATOM
      1 N         142.0200  138.5997  160.8736 N.ar    1  UNL1       -0.2891
      2 C         142.0890  138.4228  159.3857 C.ar    1  UNL1        0.2925
      3 O         143.4148  138.2139  158.7158 O.2     1  UNL1       -0.2639
      4 C         140.8321  138.4549  158.5676 C.ar    1  UNL1        0.1856
      5 N         139.5064  138.6638  159.2373 N.ar    1  UNL1       -0.2233
      6 C         139.4374  138.8406  160.7253 C.ar    1  UNL1        0.1178
      7 C         138.1116  139.0495  161.3951 C.ar    1  UNL1        0.1194
      8 N         138.0427  139.2263  162.8830 N.ar    1  UNL1       -0.2421
      9 C         139.2995  139.1943  163.7012 C.ar    1  UNL1        0.0844
     10 C         140.6253  138.9854  163.0314 C.ar    1  UNL1        0.0380
     11 C         140.6942  138.8086  161.5435 C.ar    1  UNL1        0.0833
     12 C         139.2305  139.3711  165.1892 C.ar    1  UNL1        0.0371
     13 C         140.2247  140.2514  165.8867 C.ar    1  UNL1        0.0078
     14 C         140.1558  140.4283  167.3747 C.ar    1  UNL1        0.0578
     15 C         139.0925  139.7248  168.1651 C.ar    1  UNL1        0.2250
     16 N         138.0983  138.8445  167.4674 N.ar    1  UNL1       -0.2101
     17 C         138.1673  138.6677  165.9795 C.ar    1  UNL1        0.1035
     18 O         139.0235  139.9016  169.6530 O.3     1  UNL1       -0.4561
     19 C         140.2648  140.2327  170.4272 C.3     1  UNL1        0.2542
     20 N         140.9011  138.2780  157.0796 N.pl3   1  UNL1       -0.3131
     21 H         141.0718  139.0545  156.4990 H       1  UNL1        0.1484
     22 C         140.7100  136.9181  156.4763 C.3     1  UNL1        0.1056
     23 C         141.9018  136.1096  156.0566 C.3     1  UNL1        0.0901
     24 N         141.8348  134.6112  156.0724 N.3     1  UNL1       -0.2940
     25 H         141.7838  134.3084  155.0997 H       1  UNL1        0.1234
     26 C         142.9335  133.8181  156.7157 C.3     1  UNL1        0.1008
     27 C         143.7887  132.9093  155.8835 C.3     1  UNL1        0.1542
     28 O         145.2348  132.7141  156.2309 O.3     1  UNL1       -0.3805
     29 H         145.7133  133.5483  156.1041 H       1  UNL1        0.2105
     30 C         143.2769  138.5676  161.6917 C.3     1  UNL1        0.1412
     31 C         144.1790  139.7656  161.7279 C.3     1  UNL1        0.1666
     32 O         144.6837  140.2849  163.0415 O.3     1  UNL1       -0.3517
     33 C         144.7548  139.3738  164.2309 C.3     1  UNL1        0.1422
     34 C         143.5468  138.3484  166.2898 C.3     1  UNL1        0.0027
     35 C         143.7247  139.4757  165.3164 C.3     1  UNL1        0.0321
@<TRIPOS>BOND
     1    34    35    1
     2    35    33    1
     3    33    32    1
     4    32    31    1
     5    31    30    1
     6    30     1    1
     7     1     2   ar
     8     2     3    2
     9     2     4   ar
    10     4    20    1
    11    20    22    1
    12    22    23    1
    13    23    24    1
    14    24    26    1
    15    26    27    1
    16    27    28    1
    17     4     5   ar
    18     5     6   ar
    19     6     7   ar
    20     7     8   ar
    21     8     9   ar
    22     9    12    1
    23    12    13   ar
    24    13    14   ar
    25    14    15   ar
    26    15    18    1
    27    18    19    1
    28    15    16   ar
    29    16    17   ar
    30     9    10   ar
    31    10    11   ar
    32    11     1   ar
    33    11     6   ar
    34    17    12   ar
    35    20    21    1
    36    24    25    1
    37    28    29    1
@<TRIPOS>MOLECULE
*****
 35 37 0 0 0
SMALL
GASTEIGER

@<TRIPOS>ATOM
      1 N         140.1906  138.8270  160.9134 N.ar    1  UNL1       -0.2891
      2 C         139.9455  138.9303  159.4372 C.ar    1  UNL1        0.2925
      3 O         140.8022  138.1573  158.4787 O.2     1  UNL1       -0.2639
      4 C         138.8437  139.8066  158.9193 C.ar    1  UNL1        0.1856
      5 N         137.9870  140.5796  159.8777 N.ar    1  UNL1       -0.2233
      6 C         138.2321  140.4764  161.3540 C.ar    1  UNL1        0.1178
      7 C         137.3754  141.2494  162.3123 C.ar    1  UNL1        0.1194
      8 N         137.6205  141.1461  163.7885 N.ar    1  UNL1       -0.2421
      9 C         138.7223  140.2698  164.3064 C.ar    1  UNL1        0.0844
     10 C         139.5790  139.4968  163.3480 C.ar    1  UNL1        0.0380
     11 C         139.3339  139.6001  161.8718 C.ar    1  UNL1        0.0833
     12 C         138.9674  140.1666  165.7827 C.ar    1  UNL1        0.0371
     13 C         140.0418  140.9936  166.4242 C.ar    1  UNL1        0.0078
     14 C         140.2869  140.8904  167.9005 C.ar    1  UNL1        0.0578
     15 C         139.4575  139.9600  168.7352 C.ar    1  UNL1        0.2250
     16 N         138.3831  139.1330  168.0935 N.ar    1  UNL1       -0.2101
     17 C         138.1380  139.2362  166.6173 C.ar    1  UNL1        0.1035
     18 O         139.7026  139.8568  170.2114 O.3     1  UNL1       -0.4561
     19 C         140.6906  140.7708  170.8733 C.3     1  UNL1        0.2542
     20 N         138.5986  139.9099  157.4431 N.pl3   1  UNL1       -0.3131
     21 H         138.8315  139.1581  156.8516 H       1  UNL1        0.1484
     22 C         137.9986  141.1585  156.8679 C.3     1  UNL1        0.1056
     23 C         136.6617  141.1048  156.1900 C.3     1  UNL1        0.0901
     24 N         135.5493  140.2958  156.7884 N.3     1  UNL1       -0.2940
     25 H         135.4384  140.6143  157.7510 H       1  UNL1        0.1234
     26 C         134.1853  140.3194  156.1647 C.3     1  UNL1        0.1008
     27 C         133.0588  139.5560  156.7957 C.3     1  UNL1        0.1542
     28 O         132.7304  139.7645  158.2445 O.3     1  UNL1       -0.3805
     29 H         133.4667  139.4492  158.7916 H       1  UNL1        0.2105
     30 C         141.2924  137.9508  161.4312 C.3     1  UNL1        0.1412
     31 C         142.7091  138.4437  161.4236 C.3     1  UNL1        0.1666
     32 O         143.5858  138.2249  162.6209 O.3     1  UNL1       -0.3517
     33 C         143.8841  139.3639  163.5502 C.3     1  UNL1        0.1422
     34 C         142.4505  138.3082  165.4423 C.3     1  UNL1        0.0027
     35 C         143.1209  139.5042  164.8339 C.3     1  UNL1        0.0321
@<TRIPOS>BOND
     1    34    35    1
     2    35    33    1
     3    33    32    1
     4    32    31    1
     5    31    30    1
     6    30     1    1
     7     1     2   ar
     8     2     3    2
     9     2     4   ar
    10     4    20    1
    11    20    22    1
    12    22    23    1
    13    23    24    1
    14    24    26    1
    15    26    27    1
    16    27    28    1
    17     4     5   ar
    18     5     6   ar
    19     6     7   ar
    20     7     8   ar
    21     8     9   ar
    22     9    12    1
    23    12    13   ar
    24    13    14   ar
    25    14    15   ar
    26    15    18    1
    27    18    19    1
    28    15    16   ar
    29    16    17   ar
    30     9    10   ar
    31    10    11   ar
    32    11     1   ar
    33    11     6   ar
    34    17    12   ar
    35    20    21    1
    36    24    25    1
    37    28    29    1
@<TRIPOS>MOLECULE
*****
 35 37 0 0 0
SMALL
GASTEIGER

@<TRIPOS>ATOM
      1 N         138.3219  140.2183  161.1107 N.ar    1  UNL1       -0.2891
      2 C         137.8488  141.4553  161.8149 C.ar    1  UNL1        0.2925
      3 O         136.8727  141.3460  162.9487 O.2     1  UNL1       -0.2639
      4 C         138.3517  142.8016  161.3854 C.ar    1  UNL1        0.1856
      5 N         139.3278  142.9109  160.2517 N.ar    1  UNL1       -0.2233
      6 C         139.8009  141.6739  159.5474 C.ar    1  UNL1        0.1178
      7 C         140.7770  141.7832  158.4137 C.ar    1  UNL1        0.1194
      8 N         141.2501  140.5462  157.7095 N.ar    1  UNL1       -0.2421
      9 C         140.7472  139.1999  158.1390 C.ar    1  UNL1        0.0844
     10 C         139.7711  139.0905  159.2727 C.ar    1  UNL1        0.0380
     11 C         139.2980  140.3275  159.9769 C.ar    1  UNL1        0.0833
     12 C         141.2203  137.9628  157.4348 C.ar    1  UNL1        0.0371
     13 C         140.3744  137.3391  156.3646 C.ar    1  UNL1        0.0078
     14 C         140.8476  136.1020  155.6603 C.ar    1  UNL1        0.0578
     15 C         142.1667  135.4888  156.0263 C.ar    1  UNL1        0.2250
     16 N         143.0126  136.1126  157.0966 N.ar    1  UNL1       -0.2101
     17 C         142.5394  137.3496  157.8008 C.ar    1  UNL1        0.1035
     18 O         142.6398  134.2518  155.3221 O.3     1  UNL1       -0.4561
     19 C         141.6441  133.2607  154.7965 C.3     1  UNL1        0.2542
     20 N         137.8785  144.0387  162.0896 N.pl3   1  UNL1       -0.3131
     21 H         136.9472  144.3396  161.9838 H       1  UNL1        0.1484
     22 C         138.8244  144.8171  162.9552 C.3     1  UNL1        0.1056
     23 C         139.7092  145.8642  162.3462 C.3     1  UNL1        0.0901
     24 N         141.1629  145.9227  162.7116 N.3     1  UNL1       -0.2940
     25 H         141.2218  146.4037  163.6092 H       1  UNL1        0.1234
     26 C         141.9539  144.6555  162.8466 C.3     1  UNL1        0.1008
     27 C         142.5139  143.9873  161.6260 C.3     1  UNL1        0.1542
     28 O         142.1595  144.4994  160.2614 O.3     1  UNL1       -0.3805
     29 H         141.2126  144.3635  160.1008 H       1  UNL1        0.2105
     30 C         137.8189  138.8720  161.5402 C.3     1  UNL1        0.1412
     31 C         138.5173  138.1257  162.6381 C.3     1  UNL1        0.1666
     32 O         139.6599  138.7648  163.3703 O.3     1  UNL1       -0.3517
     33 C         139.5684  138.9936  164.8499 C.3     1  UNL1        0.1422
     34 C         137.8647  138.6487  166.7808 C.3     1  UNL1        0.0027
     35 C         138.2419  139.2962  165.4814 C.3     1  UNL1        0.0321
@<TRIPOS>BOND
     1    34    35    1
     2    35    33    1
     3    33    32    1
     4    32    31    1
     5    31    30    1
     6    30     1    1
     7     1     2   ar
     8     2     3    2
     9     2     4   ar
    10     4    20    1
    11    20    22    1
    12    22    23    1
    13    23    24    1
    14    24    26    1
    15    26    27    1
    16    27    28    1
    17     4     5   ar
    18     5     6   ar
    19     6     7   ar
    20     7     8   ar
    21     8     9   ar
    22     9    12    1
    23    12    13   ar
    24    13    14   ar
    25    14    15   ar
    26    15    18    1
    27    18    19    1
    28    15    16   ar
    29    16    17   ar
    30     9    10   ar
    31    10    11   ar
    32    11     1   ar
    33    11     6   ar
    34    17    12   ar
    35    20    21    1
    36    24    25    1
    37    28    29    1
