@<TRIPOS>MOLECULE
*****
 36 39 0 0 0
SMALL
GASTEIGER

@<TRIPOS>ATOM
      1 C         142.8031  138.0683  161.4944 C.2     1  UNL1        0.2425
      2 O         143.4898  139.3907  161.6663 O.2     1  UNL1       -0.2733
      3 N         141.8702  137.5641  162.5552 N.am    1  UNL1       -0.3018
      4 H         141.4195  136.6961  162.4424 H       1  UNL1        0.1495
      5 C         141.6239  138.3824  163.7880 C.3     1  UNL1        0.1035
      6 C         140.5783  139.3700  164.2141 C.3     1  UNL1        0.0933
      7 N         141.2755  139.5398  165.5313 N.3     1  UNL1       -0.2711
      8 C         142.3210  138.5522  165.1052 C.3     1  UNL1        0.0933
      9 C         141.0292  140.3582  166.7640 C.3     1  UNL1        0.0576
     10 C         140.0555  139.8795  167.7999 C.3     1  UNL1        0.0164
     11 C         139.8092  140.6978  169.0325 C.3     1  UNL1        0.0104
     12 C         140.5366  141.9949  169.2295 C.3     1  UNL1        0.0763
     13 C         141.5102  142.4735  168.1937 C.3     1  UNL1        0.0104
     14 C         141.7565  141.6551  166.9610 C.3     1  UNL1        0.0164
     15 C         140.2902  142.8131  170.4623 C.2     1  UNL1        0.2189
     16 N         139.9808  144.2759  170.3422 N.am    1  UNL1       -0.3288
     17 O         140.3533  142.1685  171.8153 O.2     1  UNL1       -0.2753
     18 H         139.9394  144.6990  169.4542 H       1  UNL1        0.1449
     19 H         139.8191  144.8129  171.1513 H       1  UNL1        0.1449
     20 C         143.0494  137.2499  160.2617 C.3     1  UNL1        0.1747
     21 N         143.1191  137.9172  158.9200 N.pl3   1  UNL1       -0.3093
     22 H         143.7184  138.6862  158.7832 H       1  UNL1        0.1487
     23 C         139.3541  137.5569  155.2355 C.3     1  UNL1        0.1537
     24 N         140.5450  137.2472  156.0933 N.ar    1  UNL1       -0.2476
     25 N         141.0798  138.1043  157.2020 N.ar    1  UNL1       -0.1544
     26 C         142.2755  137.4128  157.7868 C.ar    1  UNL1        0.1500
     27 C         142.4797  136.1282  157.0396 C.ar    1  UNL1        0.0503
     28 C         143.5013  135.0386  157.1771 C.ar    1  UNL1        0.0082
     29 C         143.4533  133.8466  156.2678 C.ar    1  UNL1        0.0716
     30 C         142.3838  133.7442  155.2211 C.ar    1  UNL1        0.0054
     31 C         141.3622  134.8339  155.0837 C.ar    1  UNL1        0.0188
     32 C         141.4101  136.0259  155.9929 C.ar    1  UNL1        0.0807
     33 C         144.4749  132.7568  156.4053 C.3     1  UNL1        0.4186
     34 F         145.4965  131.6671  156.5427 F       1  UNL1       -0.1659
     35 F         144.0996  132.2341  155.0504 F       1  UNL1       -0.1659
     36 F         144.8503  133.2795  157.7602 F       1  UNL1       -0.1659
@<TRIPOS>BOND
     1    23    24    1
     2    24    25   ar
     3    25    26   ar
     4    26    21    1
     5    21    20    1
     6    20     1    1
     7     1     2    2
     8     1     3   am
     9     3     5    1
    10     5     6    1
    11     6     7    1
    12     9     7    1
    13     9    10    1
    14    10    11    1
    15    11    12    1
    16    12    15    1
    17    15    16   am
    18    15    17    2
    19    12    13    1
    20    13    14    1
    21     7     8    1
    22    26    27   ar
    23    27    28   ar
    24    28    29   ar
    25    29    33    1
    26    33    34    1
    27    33    35    1
    28    33    36    1
    29    29    30   ar
    30    30    31   ar
    31    31    32   ar
    32    32    24   ar
    33     8     5    1
    34    32    27   ar
    35    14     9    1
    36    21    22    1
    37     3     4    1
    38    16    18    1
    39    16    19    1
@<TRIPOS>MOLECULE
*****
 36 39 0 0 0
SMALL
GASTEIGER

@<TRIPOS>ATOM
      1 C         139.3040  139.6551  160.8631 C.2     1  UNL1        0.2425
      2 O         140.7745  139.9110  161.0118 O.2     1  UNL1       -0.2733
      3 N         138.4408  139.5110  162.0813 N.am    1  UNL1       -0.3018
      4 H         137.4757  139.3431  161.9837 H       1  UNL1        0.1495
      5 C         139.0482  139.6228  163.4483 C.3     1  UNL1        0.1035
      6 C         139.2368  138.6864  164.6049 C.3     1  UNL1        0.0933
      7 N         139.9072  139.7807  165.3815 N.3     1  UNL1       -0.2711
      8 C         139.7186  140.7170  164.2249 C.3     1  UNL1        0.0933
      9 C         140.5145  139.8925  166.7485 C.3     1  UNL1        0.0576
     10 C         139.6357  140.1124  167.9440 C.3     1  UNL1        0.0164
     11 C         140.2430  140.2242  169.3109 C.3     1  UNL1        0.0104
     12 C         141.7293  140.1160  169.4824 C.3     1  UNL1        0.0763
     13 C         142.6081  139.8962  168.2869 C.3     1  UNL1        0.0104
     14 C         142.0008  139.7844  166.9199 C.3     1  UNL1        0.0164
     15 C         142.3365  140.2278  170.8494 C.2     1  UNL1        0.2189
     16 N         143.6027  139.4904  171.1703 N.am    1  UNL1       -0.3288
     17 O         141.6776  141.0771  171.8956 O.2     1  UNL1       -0.2753
     18 H         144.0352  138.9329  170.4837 H       1  UNL1        0.1449
     19 H         144.0012  139.5638  172.0676 H       1  UNL1        0.1449
     20 C         138.6967  139.5434  159.4961 C.3     1  UNL1        0.1747
     21 N         138.1996  140.7720  158.7935 N.pl3   1  UNL1       -0.3093
     22 H         137.3446  140.7483  158.3060 H       1  UNL1        0.1487
     23 C         141.4268  144.7163  157.4120 C.3     1  UNL1        0.1537
     24 N         140.4887  143.8495  158.1986 N.ar    1  UNL1       -0.2476
     25 N         139.8729  142.5646  157.7298 N.ar    1  UNL1       -0.1544
     26 C         139.0053  142.0366  158.8336 C.ar    1  UNL1        0.1500
     27 C         139.0848  142.9952  159.9846 C.ar    1  UNL1        0.0503
     28 C         138.4408  142.9925  161.3393 C.ar    1  UNL1        0.0082
     29 C         138.7136  144.1104  162.3016 C.ar    1  UNL1        0.0716
     30 C         139.6304  145.2308  161.9091 C.ar    1  UNL1        0.0054
     31 C         140.2744  145.2335  160.5544 C.ar    1  UNL1        0.0188
     32 C         140.0016  144.1157  159.5922 C.ar    1  UNL1        0.0807
     33 C         138.0697  144.1077  163.6564 C.3     1  UNL1        0.4186
     34 F         137.4258  144.1052  165.0111 F       1  UNL1       -0.1659
     35 F         138.9329  145.2629  164.0689 F       1  UNL1       -0.1659
     36 F         137.2064  142.9525  163.2438 F       1  UNL1       -0.1659
@<TRIPOS>BOND
     1    23    24    1
     2    24    25   ar
     3    25    26   ar
     4    26    21    1
     5    21    20    1
     6    20     1    1
     7     1     2    2
     8     1     3   am
     9     3     5    1
    10     5     6    1
    11     6     7    1
    12     9     7    1
    13     9    10    1
    14    10    11    1
    15    11    12    1
    16    12    15    1
    17    15    16   am
    18    15    17    2
    19    12    13    1
    20    13    14    1
    21     7     8    1
    22    26    27   ar
    23    27    28   ar
    24    28    29   ar
    25    29    33    1
    26    33    34    1
    27    33    35    1
    28    33    36    1
    29    29    30   ar
    30    30    31   ar
    31    31    32   ar
    32    32    24   ar
    33     8     5    1
    34    32    27   ar
    35    14     9    1
    36    21    22    1
    37     3     4    1
    38    16    18    1
    39    16    19    1
@<TRIPOS>MOLECULE
*****
 36 39 0 0 0
SMALL
GASTEIGER

@<TRIPOS>ATOM
      1 C         141.0683  144.9000  161.1131 C.2     1  UNL1        0.2425
      2 O         140.3184  145.7796  162.0691 O.2     1  UNL1       -0.2733
      3 N         141.7920  143.6877  161.6193 N.am    1  UNL1       -0.3018
      4 H         142.2842  143.1104  160.9918 H       1  UNL1        0.1495
      5 C         141.7658  143.3549  163.0817 C.3     1  UNL1        0.1035
      6 C         142.2043  144.0511  164.3360 C.3     1  UNL1        0.0933
      7 N         141.7289  142.8843  165.1499 N.3     1  UNL1       -0.2711
      8 C         141.2904  142.1881  163.8957 C.3     1  UNL1        0.0933
      9 C         141.7027  142.5515  166.6123 C.3     1  UNL1        0.0576
     10 C         140.4298  142.6981  167.3922 C.3     1  UNL1        0.0164
     11 C         140.4036  142.3654  168.8545 C.3     1  UNL1        0.0104
     12 C         141.6503  141.8859  169.5371 C.3     1  UNL1        0.0763
     13 C         142.9232  141.7393  168.7572 C.3     1  UNL1        0.0104
     14 C         142.9494  142.0721  167.2948 C.3     1  UNL1        0.0164
     15 C         141.6240  141.5532  170.9994 C.2     1  UNL1        0.2189
     16 N         142.5447  140.5029  171.5464 N.am    1  UNL1       -0.3288
     17 O         140.6769  142.2708  171.9149 O.2     1  UNL1       -0.2753
     18 H         143.1663  140.0319  170.9455 H       1  UNL1        0.1449
     19 H         142.5273  140.2845  172.5062 H       1  UNL1        0.1449
     20 C         141.0945  145.2328  159.6507 C.3     1  UNL1        0.1747
     21 N         139.9100  144.9135  158.7875 N.pl3   1  UNL1       -0.3093
     22 H         139.4126  145.6394  158.3459 H       1  UNL1        0.1487
     23 C         138.9762  140.2009  156.5965 C.3     1  UNL1        0.1537
     24 N         139.0540  141.3220  157.5900 N.ar    1  UNL1       -0.2476
     25 N         139.6004  142.6945  157.3296 N.ar    1  UNL1       -0.1544
     26 C         139.4832  143.4881  158.5971 C.ar    1  UNL1        0.1500
     27 C         138.8644  142.6061  159.6408 C.ar    1  UNL1        0.0503
     28 C         138.5082  142.8491  161.0774 C.ar    1  UNL1        0.0082
     29 C         137.8867  141.7534  161.8916 C.ar    1  UNL1        0.0716
     30 C         137.6214  140.4146  161.2692 C.ar    1  UNL1        0.0054
     31 C         137.9776  140.1717  159.8325 C.ar    1  UNL1        0.0188
     32 C         138.5991  141.2674  159.0183 C.ar    1  UNL1        0.0807
     33 C         137.5305  141.9963  163.3284 C.3     1  UNL1        0.4186
     34 F         137.1742  142.2393  164.7650 F       1  UNL1       -0.1659
     35 F         137.4908  143.4731  163.0688 F       1  UNL1       -0.1659
     36 F         137.5701  140.5195  163.5880 F       1  UNL1       -0.1659
@<TRIPOS>BOND
     1    23    24    1
     2    24    25   ar
     3    25    26   ar
     4    26    21    1
     5    21    20    1
     6    20     1    1
     7     1     2    2
     8     1     3   am
     9     3     5    1
    10     5     6    1
    11     6     7    1
    12     9     7    1
    13     9    10    1
    14    10    11    1
    15    11    12    1
    16    12    15    1
    17    15    16   am
    18    15    17    2
    19    12    13    1
    20    13    14    1
    21     7     8    1
    22    26    27   ar
    23    27    28   ar
    24    28    29   ar
    25    29    33    1
    26    33    34    1
    27    33    35    1
    28    33    36    1
    29    29    30   ar
    30    30    31   ar
    31    31    32   ar
    32    32    24   ar
    33     8     5    1
    34    32    27   ar
    35    14     9    1
    36    21    22    1
    37     3     4    1
    38    16    18    1
    39    16    19    1
@<TRIPOS>MOLECULE
*****
 36 39 0 0 0
SMALL
GASTEIGER

@<TRIPOS>ATOM
      1 C         140.2139  138.7340  161.1881 C.2     1  UNL1        0.2425
      2 O         140.4131  137.6697  162.2262 O.2     1  UNL1       -0.2733
      3 N         140.0228  140.1621  161.6051 N.am    1  UNL1       -0.3018
      4 H         139.8920  140.8606  160.9237 H       1  UNL1        0.1495
      5 C         140.0308  140.5259  163.0603 C.3     1  UNL1        0.1035
      6 C         141.0873  140.6413  164.1189 C.3     1  UNL1        0.0933
      7 N         140.0423  141.0405  165.1182 N.3     1  UNL1       -0.2711
      8 C         138.9859  140.9250  164.0596 C.3     1  UNL1        0.0933
      9 C         140.0504  141.4043  166.5734 C.3     1  UNL1        0.0576
     10 C         140.4238  142.7940  166.9970 C.3     1  UNL1        0.0164
     11 C         140.4319  143.1578  168.4521 C.3     1  UNL1        0.0104
     12 C         140.0665  142.1320  169.4838 C.3     1  UNL1        0.0763
     13 C         139.6932  140.7423  169.0602 C.3     1  UNL1        0.0104
     14 C         139.6851  140.3785  167.6050 C.3     1  UNL1        0.0164
     15 C         140.0746  142.4959  170.9389 C.2     1  UNL1        0.2189
     16 N         138.9575  143.3156  171.5133 N.am    1  UNL1       -0.3288
     17 O         141.2001  142.0402  171.8197 O.2     1  UNL1       -0.2753
     18 H         138.2188  143.6148  170.9353 H       1  UNL1        0.1449
     19 H         138.9628  143.5545  172.4684 H       1  UNL1        0.1449
     20 C         140.2058  138.3701  159.7329 C.3     1  UNL1        0.1747
     21 N         141.4531  138.5255  158.9140 N.pl3   1  UNL1       -0.3093
     22 H         141.7839  137.7722  158.3732 H       1  UNL1        0.1487
     23 C         143.3037  143.2568  157.4751 C.3     1  UNL1        0.1537
     24 N         143.0468  142.0032  158.2577 N.ar    1  UNL1       -0.2476
     25 N         142.1590  140.8689  157.8392 N.ar    1  UNL1       -0.1544
     26 C         142.1962  139.8285  158.9191 C.ar    1  UNL1        0.1500
     27 C         143.1069  140.3198  160.0050 C.ar    1  UNL1        0.0503
     28 C         143.5254  139.7169  161.3132 C.ar    1  UNL1        0.0082
     29 C         144.4696  140.4581  162.2126 C.ar    1  UNL1        0.0716
     30 C         144.9953  141.8022  161.8039 C.ar    1  UNL1        0.0054
     31 C         144.5768  142.4050  160.4957 C.ar    1  UNL1        0.0188
     32 C         143.6326  141.6638  159.5963 C.ar    1  UNL1        0.0807
     33 C         144.8882  139.8553  163.5209 C.3     1  UNL1        0.4186
     34 F         145.3066  139.2524  164.8291 F       1  UNL1       -0.1659
     35 F         143.9265  138.7241  163.3072 F       1  UNL1       -0.1659
     36 F         145.8498  140.9864  163.7345 F       1  UNL1       -0.1659
@<TRIPOS>BOND
     1    23    24    1
     2    24    25   ar
     3    25    26   ar
     4    26    21    1
     5    21    20    1
     6    20     1    1
     7     1     2    2
     8     1     3   am
     9     3     5    1
    10     5     6    1
    11     6     7    1
    12     9     7    1
    13     9    10    1
    14    10    11    1
    15    11    12    1
    16    12    15    1
    17    15    16   am
    18    15    17    2
    19    12    13    1
    20    13    14    1
    21     7     8    1
    22    26    27   ar
    23    27    28   ar
    24    28    29   ar
    25    29    33    1
    26    33    34    1
    27    33    35    1
    28    33    36    1
    29    29    30   ar
    30    30    31   ar
    31    31    32   ar
    32    32    24   ar
    33     8     5    1
    34    32    27   ar
    35    14     9    1
    36    21    22    1
    37     3     4    1
    38    16    18    1
    39    16    19    1
@<TRIPOS>MOLECULE
*****
 36 39 0 0 0
SMALL
GASTEIGER

@<TRIPOS>ATOM
      1 C         140.6460  144.8314  161.4529 C.2     1  UNL1        0.2425
      2 O         141.1221  145.7572  162.5328 O.2     1  UNL1       -0.2733
      3 N         140.1664  143.4541  161.8032 N.am    1  UNL1       -0.3018
      4 H         139.8539  142.8465  161.0944 H       1  UNL1        0.1495
      5 C         140.1629  143.0024  163.2336 C.3     1  UNL1        0.1035
      6 C         139.1097  142.8226  164.2866 C.3     1  UNL1        0.0933
      7 N         140.1579  142.3637  165.2565 N.3     1  UNL1       -0.2711
      8 C         141.2110  142.5435  164.2036 C.3     1  UNL1        0.0933
      9 C         140.1544  141.9121  166.6869 C.3     1  UNL1        0.0576
     10 C         139.7362  140.5132  167.0307 C.3     1  UNL1        0.0164
     11 C         139.7327  140.0616  168.4610 C.3     1  UNL1        0.0104
     12 C         140.1474  141.0088  169.5477 C.3     1  UNL1        0.0763
     13 C         140.5657  142.4077  169.2039 C.3     1  UNL1        0.0104
     14 C         140.5691  142.8593  167.7735 C.3     1  UNL1        0.0164
     15 C         140.1439  140.5571  170.9780 C.2     1  UNL1        0.2189
     16 N         139.5866  139.2119  171.3384 N.am    1  UNL1       -0.3288
     17 O         140.6977  141.4506  172.0481 O.2     1  UNL1       -0.2753
     18 H         139.2231  138.6255  170.6361 H       1  UNL1        0.1449
     19 H         139.5843  138.9155  172.2772 H       1  UNL1        0.1449
     20 C         140.6495  145.2831  160.0225 C.3     1  UNL1        0.1747
     21 N         141.7766  144.8892  159.1143 N.pl3   1  UNL1       -0.3093
     22 H         142.3373  145.5823  158.6965 H       1  UNL1        0.1487
     23 C         141.7948  140.1220  156.8442 C.3     1  UNL1        0.1537
     24 N         142.0579  141.2482  157.7994 N.ar    1  UNL1       -0.2476
     25 N         141.5440  142.6515  157.6708 N.ar    1  UNL1       -0.1544
     26 C         142.0495  143.4394  158.8429 C.ar    1  UNL1        0.1500
     27 C         142.8758  142.5231  159.6958 C.ar    1  UNL1        0.0503
     28 C         143.6241  142.7468  160.9764 C.ar    1  UNL1        0.0082
     29 C         144.3776  141.6163  161.6120 C.ar    1  UNL1        0.0716
     30 C         144.3828  140.2620  160.9671 C.ar    1  UNL1        0.0054
     31 C         143.6344  140.0383  159.6866 C.ar    1  UNL1        0.0188
     32 C         142.8809  141.1688  159.0509 C.ar    1  UNL1        0.0807
     33 C         145.1260  141.8400  162.8927 C.3     1  UNL1        0.4186
     34 F         145.8743  142.0638  164.1732 F       1  UNL1       -0.1659
     35 F         144.9655  143.3222  162.7275 F       1  UNL1       -0.1659
     36 F         145.2865  140.3579  163.0579 F       1  UNL1       -0.1659
@<TRIPOS>BOND
     1    23    24    1
     2    24    25   ar
     3    25    26   ar
     4    26    21    1
     5    21    20    1
     6    20     1    1
     7     1     2    2
     8     1     3   am
     9     3     5    1
    10     5     6    1
    11     6     7    1
    12     9     7    1
    13     9    10    1
    14    10    11    1
    15    11    12    1
    16    12    15    1
    17    15    16   am
    18    15    17    2
    19    12    13    1
    20    13    14    1
    21     7     8    1
    22    26    27   ar
    23    27    28   ar
    24    28    29   ar
    25    29    33    1
    26    33    34    1
    27    33    35    1
    28    33    36    1
    29    29    30   ar
    30    30    31   ar
    31    31    32   ar
    32    32    24   ar
    33     8     5    1
    34    32    27   ar
    35    14     9    1
    36    21    22    1
    37     3     4    1
    38    16    18    1
    39    16    19    1
@<TRIPOS>MOLECULE
*****
 36 39 0 0 0
SMALL
GASTEIGER

@<TRIPOS>ATOM
      1 C         142.1335  138.7672  160.0885 C.2     1  UNL1        0.2425
      2 O         143.0987  139.5872  160.8922 O.2     1  UNL1       -0.2733
      3 N         140.8646  138.2727  160.7170 N.am    1  UNL1       -0.3018
      4 H         140.2311  137.7345  160.1895 H       1  UNL1        0.1495
      5 C         140.5608  138.5982  162.1494 C.3     1  UNL1        0.1035
      6 C         139.9097  139.7472  162.8610 C.3     1  UNL1        0.0933
      7 N         140.1311  139.0587  164.1751 N.3     1  UNL1       -0.2711
      8 C         140.7821  137.9099  163.4636 C.3     1  UNL1        0.0933
      9 C         139.8272  139.3842  165.6075 C.3     1  UNL1        0.0576
     10 C         140.8083  140.1750  166.4213 C.3     1  UNL1        0.0164
     11 C         140.5045  140.5005  167.8536 C.3     1  UNL1        0.0104
     12 C         139.2196  140.0353  168.4723 C.3     1  UNL1        0.0763
     13 C         138.2386  139.2446  167.6585 C.3     1  UNL1        0.0104
     14 C         138.5424  138.9190  166.2261 C.3     1  UNL1        0.0164
     15 C         138.9159  140.3609  169.9046 C.2     1  UNL1        0.2189
     16 N         139.7297  141.3925  170.6282 N.am    1  UNL1       -0.3288
     17 O         137.7983  139.6548  170.6136 O.2     1  UNL1       -0.2753
     18 H         140.4632  141.8560  170.1630 H       1  UNL1        0.1449
     19 H         139.5303  141.6062  171.5683 H       1  UNL1        0.1449
     20 C         142.4373  138.4417  158.6561 C.3     1  UNL1        0.1747
     21 N         143.1111  137.1475  158.3077 N.pl3   1  UNL1       -0.3093
     22 H         143.8072  136.7801  158.8990 H       1  UNL1        0.1487
     23 C         141.0952  136.0372  153.5554 C.3     1  UNL1        0.1537
     24 N         141.7974  135.9027  154.8740 N.ar    1  UNL1       -0.2476
     25 N         141.9609  136.9844  155.9003 N.ar    1  UNL1       -0.1544
     26 C         142.7240  136.4130  157.0584 C.ar    1  UNL1        0.1500
     27 C         143.0321  134.9782  156.7479 C.ar    1  UNL1        0.0503
     28 C         143.7600  133.9181  157.5201 C.ar    1  UNL1        0.0082
     29 C         143.9154  132.5427  156.9422 C.ar    1  UNL1        0.0716
     30 C         143.3427  132.2273  155.5922 C.ar    1  UNL1        0.0054
     31 C         142.6147  133.2873  154.8200 C.ar    1  UNL1        0.0188
     32 C         142.4594  134.6628  155.3979 C.ar    1  UNL1        0.0807
     33 C         144.6434  131.4825  157.7144 C.3     1  UNL1        0.4186
     34 F         145.3714  130.4225  158.4865 F       1  UNL1       -0.1659
     35 F         145.7840  132.4302  157.9400 F       1  UNL1       -0.1659
     36 F         143.5028  130.5349  157.4888 F       1  UNL1       -0.1659
@<TRIPOS>BOND
     1    23    24    1
     2    24    25   ar
     3    25    26   ar
     4    26    21    1
     5    21    20    1
     6    20     1    1
     7     1     2    2
     8     1     3   am
     9     3     5    1
    10     5     6    1
    11     6     7    1
    12     9     7    1
    13     9    10    1
    14    10    11    1
    15    11    12    1
    16    12    15    1
    17    15    16   am
    18    15    17    2
    19    12    13    1
    20    13    14    1
    21     7     8    1
    22    26    27   ar
    23    27    28   ar
    24    28    29   ar
    25    29    33    1
    26    33    34    1
    27    33    35    1
    28    33    36    1
    29    29    30   ar
    30    30    31   ar
    31    31    32   ar
    32    32    24   ar
    33     8     5    1
    34    32    27   ar
    35    14     9    1
    36    21    22    1
    37     3     4    1
    38    16    18    1
    39    16    19    1
@<TRIPOS>MOLECULE
*****
 36 39 0 0 0
SMALL
GASTEIGER

@<TRIPOS>ATOM
      1 C         140.1577  138.5818  160.0575 C.2     1  UNL1        0.2425
      2 O         138.9483  138.0690  160.7817 O.2     1  UNL1       -0.2733
      3 N         141.2791  139.2161  160.8257 N.am    1  UNL1       -0.3018
      4 H         142.0728  139.5526  160.3504 H       1  UNL1        0.1495
      5 C         141.1911  139.3375  162.3182 C.3     1  UNL1        0.1035
      6 C         141.2273  138.3711  163.4650 C.3     1  UNL1        0.0933
      7 N         141.0666  139.5090  164.4289 N.3     1  UNL1       -0.2711
      8 C         141.0304  140.4753  163.2822 C.3     1  UNL1        0.0933
      9 C         140.9786  139.6305  165.9214 C.3     1  UNL1        0.0576
     10 C         139.6467  139.8365  166.5799 C.3     1  UNL1        0.0164
     11 C         139.5586  139.9579  168.0723 C.3     1  UNL1        0.0104
     12 C         140.8025  139.8733  168.9064 C.3     1  UNL1        0.0763
     13 C         142.1344  139.6672  168.2480 C.3     1  UNL1        0.0104
     14 C         142.2224  139.5458  166.7555 C.3     1  UNL1        0.0164
     15 C         140.7144  139.9947  170.3988 C.2     1  UNL1        0.2189
     16 N         141.8890  140.5035  171.1807 N.am    1  UNL1       -0.3288
     17 O         139.4515  139.6072  171.1095 O.2     1  UNL1       -0.2753
     18 H         142.7179  140.7578  170.7143 H       1  UNL1        0.1449
     19 H         141.8311  140.5832  172.1603 H       1  UNL1        0.1449
     20 C         140.2457  138.4604  158.5650 C.3     1  UNL1        0.1747
     21 N         141.4877  137.9095  157.9293 N.pl3   1  UNL1       -0.3093
     22 H         142.3673  138.0822  158.3364 H       1  UNL1        0.1487
     23 C         140.0872  136.2527  153.1153 C.3     1  UNL1        0.1537
     24 N         140.7457  136.3338  154.4606 N.ar    1  UNL1       -0.2476
     25 N         140.5347  137.4118  155.4820 N.ar    1  UNL1       -0.1544
     26 C         141.3895  137.0953  156.6733 C.ar    1  UNL1        0.1500
     27 C         142.1288  135.8217  156.3881 C.ar    1  UNL1        0.0503
     28 C         143.1129  135.0297  157.1970 C.ar    1  UNL1        0.0082
     29 C         143.6991  133.7671  156.6384 C.ar    1  UNL1        0.0716
     30 C         143.3012  133.2965  155.2708 C.ar    1  UNL1        0.0054
     31 C         142.3172  134.0884  154.4619 C.ar    1  UNL1        0.0188
     32 C         141.7309  135.3510  155.0206 C.ar    1  UNL1        0.0807
     33 C         144.6832  132.9751  157.4473 C.3     1  UNL1        0.4186
     34 F         145.6673  132.1831  158.2561 F       1  UNL1       -0.1659
     35 F         145.0871  132.2196  156.2160 F       1  UNL1       -0.1659
     36 F         144.2793  133.7306  158.6785 F       1  UNL1       -0.1659
@<TRIPOS>BOND
     1    23    24    1
     2    24    25   ar
     3    25    26   ar
     4    26    21    1
     5    21    20    1
     6    20     1    1
     7     1     2    2
     8     1     3   am
     9     3     5    1
    10     5     6    1
    11     6     7    1
    12     9     7    1
    13     9    10    1
    14    10    11    1
    15    11    12    1
    16    12    15    1
    17    15    16   am
    18    15    17    2
    19    12    13    1
    20    13    14    1
    21     7     8    1
    22    26    27   ar
    23    27    28   ar
    24    28    29   ar
    25    29    33    1
    26    33    34    1
    27    33    35    1
    28    33    36    1
    29    29    30   ar
    30    30    31   ar
    31    31    32   ar
    32    32    24   ar
    33     8     5    1
    34    32    27   ar
    35    14     9    1
    36    21    22    1
    37     3     4    1
    38    16    18    1
    39    16    19    1
@<TRIPOS>MOLECULE
*****
 36 39 0 0 0
SMALL
GASTEIGER

@<TRIPOS>ATOM
      1 C         142.4947  143.5913  160.8795 C.2     1  UNL1        0.2425
      2 O         143.7023  144.0047  161.6675 O.2     1  UNL1       -0.2733
      3 N         141.3332  142.9425  161.5721 N.am    1  UNL1       -0.3018
      4 H         140.5407  142.6712  161.0549 H       1  UNL1        0.1495
      5 C         141.3792  142.7070  163.0528 C.3     1  UNL1        0.1035
      6 C         141.2314  143.5719  164.2695 C.3     1  UNL1        0.0933
      7 N         141.4443  142.3740  165.1468 N.3     1  UNL1       -0.2711
      8 C         141.5922  141.5092  163.9302 C.3     1  UNL1        0.0933
      9 C         141.4904  142.1385  166.6275 C.3     1  UNL1        0.0576
     10 C         142.7846  142.2880  167.3709 C.3     1  UNL1        0.0164
     11 C         142.8307  142.0525  168.8514 C.3     1  UNL1        0.0104
     12 C         141.5824  141.6675  169.5889 C.3     1  UNL1        0.0763
     13 C         140.2882  141.5180  168.8456 C.3     1  UNL1        0.0104
     14 C         140.2422  141.7535  167.3649 C.3     1  UNL1        0.0164
     15 C         141.6286  141.4320  171.0695 C.2     1  UNL1        0.2189
     16 N         142.6174  140.4615  171.6443 N.am    1  UNL1       -0.3288
     17 O         140.6859  142.1672  171.9756 O.2     1  UNL1       -0.2753
     18 H         143.2362  139.9790  171.0496 H       1  UNL1        0.1449
     19 H         142.6476  140.3070  172.6161 H       1  UNL1        0.1449
     20 C         142.4487  143.8269  159.3988 C.3     1  UNL1        0.1747
     21 N         143.3542  143.0522  158.4877 N.pl3   1  UNL1       -0.3093
     22 H         144.1504  143.4838  158.1015 H       1  UNL1        0.1487
     23 C         141.9306  138.6856  155.8827 C.3     1  UNL1        0.1537
     24 N         142.3923  139.6129  156.9675 N.ar    1  UNL1       -0.2476
     25 N         142.5729  141.0967  156.8414 N.ar    1  UNL1       -0.1544
     26 C         143.0467  141.6200  158.1649 C.ar    1  UNL1        0.1500
     27 C         143.1589  140.4598  159.1089 C.ar    1  UNL1        0.0503
     28 C         143.5771  140.3726  160.5467 C.ar    1  UNL1        0.0082
     29 C         143.5909  139.0449  161.2446 C.ar    1  UNL1        0.0716
     30 C         143.1865  137.8044  160.5045 C.ar    1  UNL1        0.0054
     31 C         142.7683  137.8916  159.0667 C.ar    1  UNL1        0.0188
     32 C         142.7545  139.2193  158.3689 C.ar    1  UNL1        0.0807
     33 C         144.0091  138.9576  162.6825 C.3     1  UNL1        0.4186
     34 F         144.4273  138.8703  164.1203 F       1  UNL1       -0.1659
     35 F         143.0657  137.8096  162.8872 F       1  UNL1       -0.1659
     36 F         144.9525  140.1057  162.4778 F       1  UNL1       -0.1659
@<TRIPOS>BOND
     1    23    24    1
     2    24    25   ar
     3    25    26   ar
     4    26    21    1
     5    21    20    1
     6    20     1    1
     7     1     2    2
     8     1     3   am
     9     3     5    1
    10     5     6    1
    11     6     7    1
    12     9     7    1
    13     9    10    1
    14    10    11    1
    15    11    12    1
    16    12    15    1
    17    15    16   am
    18    15    17    2
    19    12    13    1
    20    13    14    1
    21     7     8    1
    22    26    27   ar
    23    27    28   ar
    24    28    29   ar
    25    29    33    1
    26    33    34    1
    27    33    35    1
    28    33    36    1
    29    29    30   ar
    30    30    31   ar
    31    31    32   ar
    32    32    24   ar
    33     8     5    1
    34    32    27   ar
    35    14     9    1
    36    21    22    1
    37     3     4    1
    38    16    18    1
    39    16    19    1
@<TRIPOS>MOLECULE
*****
 36 39 0 0 0
SMALL
GASTEIGER

@<TRIPOS>ATOM
      1 C         141.0402  144.5025  161.2491 C.2     1  UNL1        0.2425
      2 O         141.9714  145.1544  162.2278 O.2     1  UNL1       -0.2733
      3 N         140.1159  143.4127  161.7050 N.am    1  UNL1       -0.3018
      4 H         139.5047  142.9849  161.0626 H       1  UNL1        0.1495
      5 C         140.1228  142.9748  163.1396 C.3     1  UNL1        0.1035
      6 C         141.0228  142.1222  163.9841 C.3     1  UNL1        0.0933
      7 N         140.1326  142.3555  165.1685 N.3     1  UNL1       -0.2711
      8 C         139.2326  143.2082  164.3242 C.3     1  UNL1        0.0933
      9 C         140.1395  141.9177  166.6032 C.3     1  UNL1        0.0576
     10 C         139.5842  140.5764  166.9807 C.3     1  UNL1        0.0164
     11 C         139.5911  140.1385  168.4152 C.3     1  UNL1        0.0104
     12 C         140.1533  141.0419  169.4725 C.3     1  UNL1        0.0763
     13 C         140.7087  142.3832  169.0951 C.3     1  UNL1        0.0104
     14 C         140.7018  142.8211  167.6604 C.3     1  UNL1        0.0164
     15 C         140.1602  140.6039  170.9071 C.2     1  UNL1        0.2189
     16 N         139.7082  139.2208  171.2713 N.am    1  UNL1       -0.3288
     17 O         140.6191  141.5492  171.9776 O.2     1  UNL1       -0.2753
     18 H         139.4070  138.6004  170.5687 H       1  UNL1        0.1449
     19 H         139.7127  138.9334  172.2129 H       1  UNL1        0.1449
     20 C         141.0333  144.9404  159.8144 C.3     1  UNL1        0.1747
     21 N         140.2550  144.1610  158.7961 N.pl3   1  UNL1       -0.3093
     22 H         139.5077  143.5871  159.0814 H       1  UNL1        0.1487
     23 C         142.1556  143.0050  154.0074 C.3     1  UNL1        0.1537
     24 N         141.4889  143.7248  155.1420 N.ar    1  UNL1       -0.2476
     25 N         141.3435  143.2154  156.5454 N.ar    1  UNL1       -0.1544
     26 C         140.6153  144.2561  157.3431 C.ar    1  UNL1        0.1500
     27 C         140.3106  145.4088  156.4329 C.ar    1  UNL1        0.0503
     28 C         139.6112  146.7149  156.6670 C.ar    1  UNL1        0.0082
     29 C         139.4518  147.6927  155.5407 C.ar    1  UNL1        0.0716
     30 C         139.9917  147.3643  154.1803 C.ar    1  UNL1        0.0054
     31 C         140.6911  146.0581  153.9462 C.ar    1  UNL1        0.0188
     32 C         140.8505  145.0804  155.0725 C.ar    1  UNL1        0.0807
     33 C         138.7524  148.9989  155.7748 C.3     1  UNL1        0.4186
     34 F         138.0531  150.3051  156.0089 F       1  UNL1       -0.1659
     35 F         138.4296  148.5747  157.1768 F       1  UNL1       -0.1659
     36 F         139.0753  149.4231  154.3727 F       1  UNL1       -0.1659
@<TRIPOS>BOND
     1    23    24    1
     2    24    25   ar
     3    25    26   ar
     4    26    21    1
     5    21    20    1
     6    20     1    1
     7     1     2    2
     8     1     3   am
     9     3     5    1
    10     5     6    1
    11     6     7    1
    12     9     7    1
    13     9    10    1
    14    10    11    1
    15    11    12    1
    16    12    15    1
    17    15    16   am
    18    15    17    2
    19    12    13    1
    20    13    14    1
    21     7     8    1
    22    26    27   ar
    23    27    28   ar
    24    28    29   ar
    25    29    33    1
    26    33    34    1
    27    33    35    1
    28    33    36    1
    29    29    30   ar
    30    30    31   ar
    31    31    32   ar
    32    32    24   ar
    33     8     5    1
    34    32    27   ar
    35    14     9    1
    36    21    22    1
    37     3     4    1
    38    16    18    1
    39    16    19    1
