@<TRIPOS>MOLECULE
*****
 31 35 0 0 0
SMALL
GASTEIGER

@<TRIPOS>ATOM
      1 C         141.0727  142.5377  163.4512 C.ar    1  UNL1       -0.0035
      2 C         141.5710  143.1656  164.7190 C.ar    1  UNL1        0.0757
      3 N         141.2654  142.2300  165.8509 N.ar    1  UNL1       -0.3052
      4 C         140.5782  141.0238  165.2826 C.ar    1  UNL1        0.0638
      5 C         140.0455  139.7769  165.9240 C.ar    1  UNL1        0.0184
      6 C         139.3938  138.7202  165.0823 C.ar    1  UNL1        0.0129
      7 C         139.2747  138.9104  163.5991 C.ar    1  UNL1        0.0578
      8 CL        138.6229  137.8536  162.7574 Cl      1  UNL1       -0.0822
      9 C         139.8073  140.1573  162.9577 C.ar    1  UNL1        0.0126
     10 C         140.4591  141.2140  163.7995 C.ar    1  UNL1        0.0144
     11 N         141.3668  144.3133  159.3267 N.3     1  UNL1       -0.2712
     12 C         142.3071  143.2207  159.7417 C.3     1  UNL1        0.0725
     13 C         142.2090  142.6289  161.1165 C.3     1  UNL1        0.0218
     14 C         141.1707  143.1296  162.0764 C.3     1  UNL1        0.0266
     15 C         140.2305  144.2221  161.6614 C.3     1  UNL1        0.0218
     16 C         140.3286  144.8140  160.2866 C.3     1  UNL1        0.0725
     17 C         141.4649  144.9052  157.9519 C.3     1  UNL1        0.0939
     18 C         140.5627  146.0364  157.5563 C.3     1  UNL1        0.1123
     19 O         138.8838  148.3932  156.0477 O.2     1  UNL1       -0.2526
     20 C         138.7684  146.9211  155.7836 C.2     1  UNL1        0.3041
     21 N         137.8611  146.2740  154.7797 N.am    1  UNL1       -0.2870
     22 C         138.0720  144.7907  154.8526 C.3     1  UNL1        0.1124
     23 C         139.1098  144.5212  155.9016 C.3     1  UNL1        0.1162
     24 N         139.5401  145.8378  156.4770 N.am    1  UNL1       -0.2610
     25 H         137.2367  146.7408  154.1784 H       1  UNL1        0.1510
     26 C         141.5899  142.4600  167.2972 C.ar    1  UNL1        0.0640
     27 C         142.9752  142.1924  167.8067 C.ar    1  UNL1        0.0175
     28 C         143.2998  142.4224  169.2530 C.ar    1  UNL1        0.0015
     29 C         142.2392  142.9202  170.1897 C.ar    1  UNL1        0.0001
     30 C         140.8540  143.1878  169.6802 C.ar    1  UNL1        0.0015
     31 C         140.5295  142.9577  168.2339 C.ar    1  UNL1        0.0175
@<TRIPOS>BOND
     1    19    20    2
     2    20    21   am
     3    21    22    1
     4    22    23    1
     5    23    24    1
     6    24    18    1
     7    18    17    1
     8    17    11    1
     9    11    12    1
    10    12    13    1
    11    13    14    1
    12    14     1    1
    13     1     2   ar
    14     2     3   ar
    15     3    26    1
    16    26    27   ar
    17    27    28   ar
    18    28    29   ar
    19    29    30   ar
    20    30    31   ar
    21     3     4   ar
    22     4     5   ar
    23     5     6   ar
    24     6     7   ar
    25     7     8    1
    26     7     9   ar
    27     9    10   ar
    28    14    15    1
    29    15    16    1
    30    24    20   am
    31    16    11    1
    32    10     1   ar
    33    31    26   ar
    34    10     4   ar
    35    21    25    1
@<TRIPOS>MOLECULE
*****
 31 35 0 0 0
SMALL
GASTEIGER

@<TRIPOS>ATOM
      1 C         141.7974  140.7950  163.6091 C.ar    1  UNL1       -0.0035
      2 C         142.4881  140.3554  164.8660 C.ar    1  UNL1        0.0757
      3 N         141.9531  141.1777  166.0007 N.ar    1  UNL1       -0.3052
      4 C         140.9318  142.1255  165.4452 C.ar    1  UNL1        0.0638
      5 C         140.0770  143.1733  166.0943 C.ar    1  UNL1        0.0184
      6 C         139.1260  143.9846  165.2653 C.ar    1  UNL1        0.0129
      7 C         139.0298  143.7481  163.7872 C.ar    1  UNL1        0.0578
      8 CL        138.0787  144.5595  162.9582 Cl      1  UNL1       -0.0822
      9 C         139.8845  142.7003  163.1381 C.ar    1  UNL1        0.0126
     10 C         140.8355  141.8890  163.9671 C.ar    1  UNL1        0.0144
     11 N         142.4891  139.1251  159.4881 N.3     1  UNL1       -0.2712
     12 C         141.2539  138.7497  160.2518 C.3     1  UNL1        0.0725
     13 C         141.0232  139.3064  161.6254 C.3     1  UNL1        0.0218
     14 C         142.0280  140.2384  162.2354 C.3     1  UNL1        0.0266
     15 C         143.2631  140.6137  161.4717 C.3     1  UNL1        0.0218
     16 C         143.4938  140.0570  160.0980 C.3     1  UNL1        0.0725
     17 C         142.7197  138.5684  158.1144 C.3     1  UNL1        0.0939
     18 C         142.6998  137.0850  157.8931 C.3     1  UNL1        0.1123
     19 O         144.9617  137.5637  155.5902 O.2     1  UNL1       -0.2526
     20 C         143.7073  136.7552  155.4393 C.2     1  UNL1        0.3041
     21 N         143.2723  136.0249  154.2035 N.am    1  UNL1       -0.2870
     22 C         141.9638  135.3535  154.4982 C.3     1  UNL1        0.1124
     23 C         141.5900  135.6689  155.9163 C.3     1  UNL1        0.1162
     24 N         142.6675  136.5352  156.4979 N.am    1  UNL1       -0.2610
     25 H         143.7600  135.9920  153.3489 H       1  UNL1        0.1510
     26 C         142.3668  141.0709  167.4386 C.ar    1  UNL1        0.0640
     27 C         143.0584  142.2218  168.1075 C.ar    1  UNL1        0.0175
     28 C         143.4721  142.1151  169.5454 C.ar    1  UNL1        0.0015
     29 C         143.1943  140.8575  170.3143 C.ar    1  UNL1        0.0001
     30 C         142.5028  139.7067  169.6454 C.ar    1  UNL1        0.0015
     31 C         142.0891  139.8135  168.2076 C.ar    1  UNL1        0.0175
@<TRIPOS>BOND
     1    19    20    2
     2    20    21   am
     3    21    22    1
     4    22    23    1
     5    23    24    1
     6    24    18    1
     7    18    17    1
     8    17    11    1
     9    11    12    1
    10    12    13    1
    11    13    14    1
    12    14     1    1
    13     1     2   ar
    14     2     3   ar
    15     3    26    1
    16    26    27   ar
    17    27    28   ar
    18    28    29   ar
    19    29    30   ar
    20    30    31   ar
    21     3     4   ar
    22     4     5   ar
    23     5     6   ar
    24     6     7   ar
    25     7     8    1
    26     7     9   ar
    27     9    10   ar
    28    14    15    1
    29    15    16    1
    30    24    20   am
    31    16    11    1
    32    10     1   ar
    33    31    26   ar
    34    10     4   ar
    35    21    25    1
@<TRIPOS>MOLECULE
*****
 31 35 0 0 0
SMALL
GASTEIGER

@<TRIPOS>ATOM
      1 C         141.1753  142.4655  162.6244 C.ar    1  UNL1       -0.0035
      2 C         140.1539  141.3930  162.8618 C.ar    1  UNL1        0.0757
      3 N         140.3981  140.8138  164.2238 N.ar    1  UNL1       -0.3052
      4 C         141.5704  141.5283  164.8280 C.ar    1  UNL1        0.0638
      5 C         142.2626  141.3813  166.1506 C.ar    1  UNL1        0.0184
      6 C         143.4351  142.2552  166.4847 C.ar    1  UNL1        0.0129
      7 C         143.9154  143.2760  165.4962 C.ar    1  UNL1        0.0578
      8 CL        145.0879  144.1499  165.8303 Cl      1  UNL1       -0.0822
      9 C         143.2232  143.4230  164.1736 C.ar    1  UNL1        0.0126
     10 C         142.0508  142.5492  163.8395 C.ar    1  UNL1        0.0144
     11 N         141.5477  144.9893  158.9173 N.3     1  UNL1       -0.2712
     12 C         140.4498  145.2612  159.9025 C.3     1  UNL1        0.0725
     13 C         140.3256  144.4199  161.1382 C.3     1  UNL1        0.0218
     14 C         141.2995  143.3068  161.3887 C.3     1  UNL1        0.0266
     15 C         142.3973  143.0350  160.4035 C.3     1  UNL1        0.0218
     16 C         142.5215  143.8762  159.1678 C.3     1  UNL1        0.0725
     17 C         141.6719  145.8305  157.6816 C.3     1  UNL1        0.0939
     18 C         141.3163  145.2543  156.3431 C.3     1  UNL1        0.1123
     19 O         140.0448  147.9303  154.9753 O.2     1  UNL1       -0.2526
     20 C         139.3358  146.6251  155.1842 C.2     1  UNL1        0.3041
     21 N         137.9178  146.3208  154.8011 N.am    1  UNL1       -0.2870
     22 C         137.6259  144.9027  155.1931 C.3     1  UNL1        0.1124
     23 C         138.8635  144.3306  155.8184 C.3     1  UNL1        0.1162
     24 N         139.9202  145.3950  155.8130 N.am    1  UNL1       -0.2610
     25 H         137.2891  146.9426  154.3684 H       1  UNL1        0.1510
     26 C         139.6086  139.7132  164.8683 C.ar    1  UNL1        0.0640
     27 C         138.7269  140.0123  166.0444 C.ar    1  UNL1        0.0175
     28 C         137.9374  138.9118  166.6890 C.ar    1  UNL1        0.0015
     29 C         138.0296  137.5121  166.1575 C.ar    1  UNL1        0.0001
     30 C         138.9113  137.2130  164.9815 C.ar    1  UNL1        0.0015
     31 C         139.7008  138.3136  164.3369 C.ar    1  UNL1        0.0175
@<TRIPOS>BOND
     1    19    20    2
     2    20    21   am
     3    21    22    1
     4    22    23    1
     5    23    24    1
     6    24    18    1
     7    18    17    1
     8    17    11    1
     9    11    12    1
    10    12    13    1
    11    13    14    1
    12    14     1    1
    13     1     2   ar
    14     2     3   ar
    15     3    26    1
    16    26    27   ar
    17    27    28   ar
    18    28    29   ar
    19    29    30   ar
    20    30    31   ar
    21     3     4   ar
    22     4     5   ar
    23     5     6   ar
    24     6     7   ar
    25     7     8    1
    26     7     9   ar
    27     9    10   ar
    28    14    15    1
    29    15    16    1
    30    24    20   am
    31    16    11    1
    32    10     1   ar
    33    31    26   ar
    34    10     4   ar
    35    21    25    1
@<TRIPOS>MOLECULE
*****
 31 35 0 0 0
SMALL
GASTEIGER

@<TRIPOS>ATOM
      1 C         141.7052  142.0085  163.6194 C.ar    1  UNL1       -0.0035
      2 C         142.1301  142.7199  164.8698 C.ar    1  UNL1        0.0757
      3 N         141.5555  141.9807  166.0417 N.ar    1  UNL1       -0.3052
      4 C         140.7754  140.8124  165.5156 C.ar    1  UNL1        0.0638
      5 C         139.9929  139.7352  166.2064 C.ar    1  UNL1        0.0184
      6 C         139.3028  138.6752  165.4001 C.ar    1  UNL1        0.0129
      7 C         139.3953  138.6924  163.9030 C.ar    1  UNL1        0.0578
      8 CL        138.7052  137.6323  163.0967 Cl      1  UNL1       -0.0822
      9 C         140.1779  139.7696  163.2123 C.ar    1  UNL1        0.0126
     10 C         140.8679  140.8296  164.0186 C.ar    1  UNL1        0.0144
     11 N         142.7572  143.2015  159.4099 N.3     1  UNL1       -0.2712
     12 C         141.3253  143.2114  159.8566 C.3     1  UNL1        0.0725
     13 C         140.9746  142.8138  161.2597 C.3     1  UNL1        0.0218
     14 C         142.0559  142.4062  162.2163 C.3     1  UNL1        0.0266
     15 C         143.4877  142.3962  161.7695 C.3     1  UNL1        0.0218
     16 C         143.8384  142.7939  160.3663 C.3     1  UNL1        0.0725
     17 C         143.1079  143.5991  158.0067 C.3     1  UNL1        0.0939
     18 C         142.9929  142.6006  156.8932 C.3     1  UNL1        0.1123
     19 O         144.1682  139.8470  158.1916 O.2     1  UNL1       -0.2526
     20 C         144.7478  140.5886  157.0236 C.2     1  UNL1        0.3041
     21 N         145.9694  140.1947  156.2474 N.am    1  UNL1       -0.2870
     22 C         146.1842  141.2169  155.1709 C.3     1  UNL1        0.1124
     23 C         145.0953  142.2426  155.2818 C.3     1  UNL1        0.1162
     24 N         144.2076  141.8543  156.4268 N.am    1  UNL1       -0.2610
     25 H         146.5315  139.4040  156.4150 H       1  UNL1        0.1510
     26 C         141.7302  142.3456  167.4861 C.ar    1  UNL1        0.0640
     27 C         143.0601  142.1530  168.1528 C.ar    1  UNL1        0.0175
     28 C         143.2349  142.5179  169.5972 C.ar    1  UNL1        0.0015
     29 C         142.0798  143.0755  170.3749 C.ar    1  UNL1        0.0001
     30 C         140.7500  143.2681  169.7082 C.ar    1  UNL1        0.0015
     31 C         140.5753  142.9032  168.2638 C.ar    1  UNL1        0.0175
@<TRIPOS>BOND
     1    19    20    2
     2    20    21   am
     3    21    22    1
     4    22    23    1
     5    23    24    1
     6    24    18    1
     7    18    17    1
     8    17    11    1
     9    11    12    1
    10    12    13    1
    11    13    14    1
    12    14     1    1
    13     1     2   ar
    14     2     3   ar
    15     3    26    1
    16    26    27   ar
    17    27    28   ar
    18    28    29   ar
    19    29    30   ar
    20    30    31   ar
    21     3     4   ar
    22     4     5   ar
    23     5     6   ar
    24     6     7   ar
    25     7     8    1
    26     7     9   ar
    27     9    10   ar
    28    14    15    1
    29    15    16    1
    30    24    20   am
    31    16    11    1
    32    10     1   ar
    33    31    26   ar
    34    10     4   ar
    35    21    25    1
@<TRIPOS>MOLECULE
*****
 31 35 0 0 0
SMALL
GASTEIGER

@<TRIPOS>ATOM
      1 C         141.4774  142.5278  163.8095 C.ar    1  UNL1       -0.0035
      2 C         141.6412  143.2153  165.1326 C.ar    1  UNL1        0.0757
      3 N         141.7310  142.1603  166.1951 N.ar    1  UNL1       -0.3052
      4 C         141.6227  140.8208  165.5287 C.ar    1  UNL1        0.0638
      5 C         141.6466  139.4237  166.0740 C.ar    1  UNL1        0.0184
      6 C         141.5137  138.2537  165.1448 C.ar    1  UNL1        0.0129
      7 C         141.3571  138.4808  163.6704 C.ar    1  UNL1        0.0578
      8 CL        141.2242  137.3107  162.7413 Cl      1  UNL1       -0.0822
      9 C         141.3332  139.8779  163.1252 C.ar    1  UNL1        0.0126
     10 C         141.4660  141.0480  164.0543 C.ar    1  UNL1        0.0144
     11 N         141.0886  144.5499  159.8083 N.3     1  UNL1       -0.2712
     12 C         140.0534  144.7808  160.8690 C.3     1  UNL1        0.0725
     13 C         140.1830  144.1067  162.2027 C.3     1  UNL1        0.0218
     14 C         141.3479  143.2018  162.4758 C.3     1  UNL1        0.0266
     15 C         142.3830  142.9711  161.4151 C.3     1  UNL1        0.0218
     16 C         142.2534  143.6451  160.0813 C.3     1  UNL1        0.0725
     17 C         140.9590  145.2240  158.4745 C.3     1  UNL1        0.0939
     18 C         140.1001  144.6145  157.4064 C.3     1  UNL1        0.1123
     19 O         137.4695  143.8310  155.6414 O.2     1  UNL1       -0.2526
     20 C         138.2127  145.1328  155.5860 C.2     1  UNL1        0.3041
     21 N         137.8772  146.3030  154.7097 N.am    1  UNL1       -0.2870
     22 C         138.8789  147.3863  154.9793 C.3     1  UNL1        0.1124
     23 C         139.8336  146.8857  156.0224 C.3     1  UNL1        0.1162
     24 N         139.4219  145.4930  156.3973 N.am    1  UNL1       -0.2610
     25 H         137.1306  146.3515  154.0698 H       1  UNL1        0.1510
     26 C         141.8994  142.4023  167.6659 C.ar    1  UNL1        0.0640
     27 C         140.7427  142.8992  168.4816 C.ar    1  UNL1        0.0175
     28 C         140.9112  143.1412  169.9523 C.ar    1  UNL1        0.0015
     29 C         142.2363  142.8863  170.6074 C.ar    1  UNL1        0.0001
     30 C         143.3929  142.3894  169.7917 C.ar    1  UNL1        0.0015
     31 C         143.2244  142.1474  168.3210 C.ar    1  UNL1        0.0175
@<TRIPOS>BOND
     1    19    20    2
     2    20    21   am
     3    21    22    1
     4    22    23    1
     5    23    24    1
     6    24    18    1
     7    18    17    1
     8    17    11    1
     9    11    12    1
    10    12    13    1
    11    13    14    1
    12    14     1    1
    13     1     2   ar
    14     2     3   ar
    15     3    26    1
    16    26    27   ar
    17    27    28   ar
    18    28    29   ar
    19    29    30   ar
    20    30    31   ar
    21     3     4   ar
    22     4     5   ar
    23     5     6   ar
    24     6     7   ar
    25     7     8    1
    26     7     9   ar
    27     9    10   ar
    28    14    15    1
    29    15    16    1
    30    24    20   am
    31    16    11    1
    32    10     1   ar
    33    31    26   ar
    34    10     4   ar
    35    21    25    1
@<TRIPOS>MOLECULE
*****
 31 35 0 0 0
SMALL
GASTEIGER

@<TRIPOS>ATOM
      1 C         141.5893  140.9530  164.0943 C.ar    1  UNL1       -0.0035
      2 C         142.2111  140.8303  165.4538 C.ar    1  UNL1        0.0757
      3 N         141.5964  141.8724  166.3404 N.ar    1  UNL1       -0.3052
      4 C         140.5947  142.6392  165.5288 C.ar    1  UNL1        0.0638
      5 C         139.6860  143.7814  165.8745 C.ar    1  UNL1        0.0184
      6 C         138.7729  144.3554  164.8321 C.ar    1  UNL1        0.0129
      7 C         138.7685  143.7871  163.4439 C.ar    1  UNL1        0.0578
      8 CL        137.8554  144.3612  162.4014 Cl      1  UNL1       -0.0822
      9 C         139.6772  142.6449  163.0982 C.ar    1  UNL1        0.0126
     10 C         140.5903  142.0710  164.1406 C.ar    1  UNL1        0.0144
     11 N         142.5519  138.4131  160.5064 N.3     1  UNL1       -0.2712
     12 C         143.5888  139.3390  161.0698 C.3     1  UNL1        0.0725
     13 C         143.2680  140.1857  162.2657 C.3     1  UNL1        0.0218
     14 C         141.9101  140.1063  162.8984 C.3     1  UNL1        0.0266
     15 C         140.8733  139.1804  162.3350 C.3     1  UNL1        0.0218
     16 C         141.1941  138.3337  161.1391 C.3     1  UNL1        0.0725
     17 C         142.8727  137.5664  159.3105 C.3     1  UNL1        0.0939
     18 C         142.7097  138.1274  157.9289 C.3     1  UNL1        0.1123
     19 O         145.1030  138.0330  155.7125 O.2     1  UNL1       -0.2526
     20 C         143.8731  137.1744  155.7191 C.2     1  UNL1        0.3041
     21 N         143.5273  136.1217  154.7081 N.am    1  UNL1       -0.2870
     22 C         142.2136  135.5145  155.1020 C.3     1  UNL1        0.1124
     23 C         141.7474  136.1919  156.3565 C.3     1  UNL1        0.1162
     24 N         142.7730  137.2178  156.7379 N.am    1  UNL1       -0.2610
     25 H         144.0677  135.8729  153.9237 H       1  UNL1        0.1510
     26 C         141.9256  142.1067  167.7850 C.ar    1  UNL1        0.0640
     27 C         140.8228  142.2615  168.7900 C.ar    1  UNL1        0.0175
     28 C         141.1520  142.4958  170.2345 C.ar    1  UNL1        0.0015
     29 C         142.5839  142.5753  170.6741 C.ar    1  UNL1        0.0001
     30 C         143.6866  142.4205  169.6692 C.ar    1  UNL1        0.0015
     31 C         143.3574  142.1862  168.2246 C.ar    1  UNL1        0.0175
@<TRIPOS>BOND
     1    19    20    2
     2    20    21   am
     3    21    22    1
     4    22    23    1
     5    23    24    1
     6    24    18    1
     7    18    17    1
     8    17    11    1
     9    11    12    1
    10    12    13    1
    11    13    14    1
    12    14     1    1
    13     1     2   ar
    14     2     3   ar
    15     3    26    1
    16    26    27   ar
    17    27    28   ar
    18    28    29   ar
    19    29    30   ar
    20    30    31   ar
    21     3     4   ar
    22     4     5   ar
    23     5     6   ar
    24     6     7   ar
    25     7     8    1
    26     7     9   ar
    27     9    10   ar
    28    14    15    1
    29    15    16    1
    30    24    20   am
    31    16    11    1
    32    10     1   ar
    33    31    26   ar
    34    10     4   ar
    35    21    25    1
@<TRIPOS>MOLECULE
*****
 31 35 0 0 0
SMALL
GASTEIGER

@<TRIPOS>ATOM
      1 C         141.2089  140.6745  164.2669 C.ar    1  UNL1       -0.0035
      2 C         141.4553  140.2068  165.6707 C.ar    1  UNL1        0.0757
      3 N         140.9064  141.2420  166.6072 N.ar    1  UNL1       -0.3052
      4 C         140.3208  142.3495  165.7822 C.ar    1  UNL1        0.0638
      5 C         139.6415  143.6320  166.1612 C.ar    1  UNL1        0.0184
      6 C         139.1492  144.5637  165.0938 C.ar    1  UNL1        0.0129
      7 C         139.3361  144.2130  163.6474 C.ar    1  UNL1        0.0578
      8 CL        138.8437  145.1448  162.5800 Cl      1  UNL1       -0.0822
      9 C         140.0154  142.9305  163.2685 C.ar    1  UNL1        0.0126
     10 C         140.5078  141.9987  164.3358 C.ar    1  UNL1        0.0144
     11 N         142.3694  138.4886  160.5085 N.3     1  UNL1       -0.2712
     12 C         140.9446  138.4705  160.9770 C.3     1  UNL1        0.0725
     13 C         140.5577  139.1991  162.2298 C.3     1  UNL1        0.0218
     14 C         141.5958  139.9459  163.0141 C.3     1  UNL1        0.0266
     15 C         143.0205  139.9639  162.5455 C.3     1  UNL1        0.0218
     16 C         143.4074  139.2353  161.2928 C.3     1  UNL1        0.0725
     17 C         142.7562  137.7600  159.2557 C.3     1  UNL1        0.0939
     18 C         142.3662  138.3116  157.9165 C.3     1  UNL1        0.1123
     19 O         139.1427  138.7905  158.0858 O.2     1  UNL1       -0.2526
     20 C         139.8448  137.8329  157.1693 C.2     1  UNL1        0.3041
     21 N         139.1885  136.9273  156.1698 N.am    1  UNL1       -0.2870
     22 C         140.2645  136.1474  155.4742 C.3     1  UNL1        0.1124
     23 C         141.5859  136.5711  156.0438 C.3     1  UNL1        0.1162
     24 N         141.3265  137.6127  157.0914 N.am    1  UNL1       -0.2610
     25 H         138.2213  136.8570  156.0001 H       1  UNL1        0.1510
     26 C         140.9377  141.1805  168.1056 C.ar    1  UNL1        0.0640
     27 C         139.9583  140.3146  168.8413 C.ar    1  UNL1        0.0175
     28 C         139.9895  140.2531  170.3397 C.ar    1  UNL1        0.0015
     29 C         141.0000  141.0575  171.1025 C.ar    1  UNL1        0.0001
     30 C         141.9793  141.9234  170.3668 C.ar    1  UNL1        0.0015
     31 C         141.9481  141.9849  168.8684 C.ar    1  UNL1        0.0175
@<TRIPOS>BOND
     1    19    20    2
     2    20    21   am
     3    21    22    1
     4    22    23    1
     5    23    24    1
     6    24    18    1
     7    18    17    1
     8    17    11    1
     9    11    12    1
    10    12    13    1
    11    13    14    1
    12    14     1    1
    13     1     2   ar
    14     2     3   ar
    15     3    26    1
    16    26    27   ar
    17    27    28   ar
    18    28    29   ar
    19    29    30   ar
    20    30    31   ar
    21     3     4   ar
    22     4     5   ar
    23     5     6   ar
    24     6     7   ar
    25     7     8    1
    26     7     9   ar
    27     9    10   ar
    28    14    15    1
    29    15    16    1
    30    24    20   am
    31    16    11    1
    32    10     1   ar
    33    31    26   ar
    34    10     4   ar
    35    21    25    1
@<TRIPOS>MOLECULE
*****
 31 35 0 0 0
SMALL
GASTEIGER

@<TRIPOS>ATOM
      1 C         141.7354  140.0915  163.3173 C.ar    1  UNL1       -0.0035
      2 C         141.2842  139.4656  164.6036 C.ar    1  UNL1        0.0757
      3 N         141.7494  140.3380  165.7317 N.ar    1  UNL1       -0.3052
      4 C         142.4881  141.5030  165.1426 C.ar    1  UNL1        0.0638
      5 C         143.1674  142.6829  165.7722 C.ar    1  UNL1        0.0184
      6 C         143.8381  143.7104  164.9095 C.ar    1  UNL1        0.0129
      7 C         143.8295  143.5581  163.4173 C.ar    1  UNL1        0.0578
      8 CL        144.5003  144.5857  162.5546 Cl      1  UNL1       -0.0822
      9 C         143.1502  142.3783  162.7877 C.ar    1  UNL1        0.0126
     10 C         142.4794  141.3507  163.6504 C.ar    1  UNL1        0.0144
     11 N         140.9884  138.4755  159.1844 N.3     1  UNL1       -0.2712
     12 C         142.2304  138.0849  159.9292 C.3     1  UNL1        0.0725
     13 C         142.4794  138.6235  161.3069 C.3     1  UNL1        0.0218
     14 C         141.4864  139.5529  161.9397 C.3     1  UNL1        0.0266
     15 C         140.2444  139.9434  161.1948 C.3     1  UNL1        0.0218
     16 C         139.9954  139.4048  159.8172 C.3     1  UNL1        0.0725
     17 C         140.7393  137.9368  157.8068 C.3     1  UNL1        0.0939
     18 C         141.7010  138.2422  156.6969 C.3     1  UNL1        0.1123
     19 O         144.8109  138.5536  155.7583 O.2     1  UNL1       -0.2526
     20 C         143.9942  137.2967  155.7008 C.2     1  UNL1        0.3041
     21 N         144.4636  135.9623  155.2018 N.am    1  UNL1       -0.2870
     22 C         143.3243  134.9945  155.3248 C.3     1  UNL1        0.1124
     23 C         142.1507  135.7307  155.8999 C.3     1  UNL1        0.1162
     24 N         142.5647  137.1535  156.1322 N.am    1  UNL1       -0.2610
     25 H         145.3618  135.7576  154.8546 H       1  UNL1        0.1510
     26 C         141.5167  140.0890  167.1925 C.ar    1  UNL1        0.0640
     27 C         140.1791  140.3903  167.8009 C.ar    1  UNL1        0.0175
     28 C         139.9464  140.1413  169.2617 C.ar    1  UNL1        0.0015
     29 C         141.0513  139.5911  170.1141 C.ar    1  UNL1        0.0001
     30 C         142.3888  139.2899  169.5057 C.ar    1  UNL1        0.0015
     31 C         142.6215  139.5389  168.0449 C.ar    1  UNL1        0.0175
@<TRIPOS>BOND
     1    19    20    2
     2    20    21   am
     3    21    22    1
     4    22    23    1
     5    23    24    1
     6    24    18    1
     7    18    17    1
     8    17    11    1
     9    11    12    1
    10    12    13    1
    11    13    14    1
    12    14     1    1
    13     1     2   ar
    14     2     3   ar
    15     3    26    1
    16    26    27   ar
    17    27    28   ar
    18    28    29   ar
    19    29    30   ar
    20    30    31   ar
    21     3     4   ar
    22     4     5   ar
    23     5     6   ar
    24     6     7   ar
    25     7     8    1
    26     7     9   ar
    27     9    10   ar
    28    14    15    1
    29    15    16    1
    30    24    20   am
    31    16    11    1
    32    10     1   ar
    33    31    26   ar
    34    10     4   ar
    35    21    25    1
@<TRIPOS>MOLECULE
*****
 31 35 0 0 0
SMALL
GASTEIGER

@<TRIPOS>ATOM
      1 C         144.8276  142.0045  157.9405 C.ar    1  UNL1       -0.0035
      2 C         146.0473  142.5056  157.2256 C.ar    1  UNL1        0.0757
      3 N         146.3538  141.5529  156.1082 N.ar    1  UNL1       -0.3052
      4 C         145.3235  140.4630  156.1325 C.ar    1  UNL1        0.0638
      5 C         145.1224  139.2526  155.2699 C.ar    1  UNL1        0.0184
      6 C         143.9780  138.3211  155.5396 C.ar    1  UNL1        0.0129
      7 C         143.0347  138.6002  156.6720 C.ar    1  UNL1        0.0578
      8 CL        141.8903  137.6687  156.9417 Cl      1  UNL1       -0.0822
      9 C         143.2358  139.8107  157.5347 C.ar    1  UNL1        0.0126
     10 C         144.3802  140.7421  157.2649 C.ar    1  UNL1        0.0144
     11 N         142.8563  143.9471  161.4888 N.3     1  UNL1       -0.2712
     12 C         142.2100  144.0226  160.1372 C.3     1  UNL1        0.0725
     13 C         142.8671  143.3750  158.9545 C.3     1  UNL1        0.0218
     14 C         144.1705  142.6520  159.1232 C.3     1  UNL1        0.0266
     15 C         144.8167  142.5766  160.4747 C.3     1  UNL1        0.0218
     16 C         144.1596  143.2241  161.6575 C.3     1  UNL1        0.0725
     17 C         142.1992  144.5946  162.6715 C.3     1  UNL1        0.0939
     18 C         141.1771  143.8394  163.4684 C.3     1  UNL1        0.1123
     19 O         139.0034  145.7418  161.9503 O.2     1  UNL1       -0.2526
     20 C         138.9080  144.2543  162.1178 C.2     1  UNL1        0.3041
     21 N         137.7968  143.3800  161.6170 N.am    1  UNL1       -0.2870
     22 C         138.1092  141.9653  162.0053 C.3     1  UNL1        0.1124
     23 C         139.4135  141.9651  162.7461 C.3     1  UNL1        0.1162
     24 N         139.9072  143.3797  162.8156 N.am    1  UNL1       -0.2610
     25 H         137.0020  143.6818  161.1206 H       1  UNL1        0.1510
     26 C         147.4910  141.6697  155.1370 C.ar    1  UNL1        0.0640
     27 C         147.2158  141.7309  153.6637 C.ar    1  UNL1        0.0175
     28 C         148.3529  141.8476  152.6925 C.ar    1  UNL1        0.0015
     29 C         149.7653  141.9031  153.1945 C.ar    1  UNL1        0.0001
     30 C         150.0405  141.8419  154.6678 C.ar    1  UNL1        0.0015
     31 C         148.9034  141.7252  155.6390 C.ar    1  UNL1        0.0175
@<TRIPOS>BOND
     1    19    20    2
     2    20    21   am
     3    21    22    1
     4    22    23    1
     5    23    24    1
     6    24    18    1
     7    18    17    1
     8    17    11    1
     9    11    12    1
    10    12    13    1
    11    13    14    1
    12    14     1    1
    13     1     2   ar
    14     2     3   ar
    15     3    26    1
    16    26    27   ar
    17    27    28   ar
    18    28    29   ar
    19    29    30   ar
    20    30    31   ar
    21     3     4   ar
    22     4     5   ar
    23     5     6   ar
    24     6     7   ar
    25     7     8    1
    26     7     9   ar
    27     9    10   ar
    28    14    15    1
    29    15    16    1
    30    24    20   am
    31    16    11    1
    32    10     1   ar
    33    31    26   ar
    34    10     4   ar
    35    21    25    1
