@<TRIPOS>MOLECULE
*****
 35 39 0 0 0
SMALL
GASTEIGER

@<TRIPOS>ATOM
      1 C         141.9064  137.7931  163.3542 C.3     1  UNL1        0.0730
      2 N         142.8398  138.9542  163.5290 N.3     1  UNL1       -0.2726
      3 C         144.0302  139.2653  162.6710 C.3     1  UNL1        0.0721
      4 C         144.6728  140.5114  163.2042 C.3     1  UNL1        0.0190
      5 C         143.8796  140.9704  164.3917 C.3     1  UNL1        0.0201
      6 C         144.7250  142.1731  164.6896 C.3     1  UNL1        0.0061
      7 C         143.5346  141.8620  165.5476 C.3     1  UNL1        0.0237
      8 C         142.7467  140.0080  164.5924 C.3     1  UNL1        0.0724
      9 C         142.6481  142.1971  166.7102 C.ar    1  UNL1       -0.0225
     10 C         143.2138  142.2323  168.0990 C.ar    1  UNL1       -0.0043
     11 C         142.3273  142.5674  169.2617 C.ar    1  UNL1        0.0035
     12 C         140.8751  142.8673  169.0356 C.ar    1  UNL1        0.0714
     13 C         140.3094  142.8320  167.6468 C.ar    1  UNL1        0.0035
     14 C         141.1959  142.4969  166.4841 C.ar    1  UNL1       -0.0043
     15 C         139.9886  143.2024  170.1982 C.3     1  UNL1        0.4186
     16 F         139.1021  143.5375  171.3610 F       1  UNL1       -0.1659
     17 F         140.3766  144.6463  170.0779 F       1  UNL1       -0.1659
     18 F         139.6007  141.7584  170.3186 F       1  UNL1       -0.1659
     19 C         140.6564  137.7050  164.1787 C.3     1  UNL1        0.0294
     20 C         139.3489  137.3681  163.5251 C.3     1  UNL1        0.0666
     21 S         138.6051  138.4162  162.7517 S.3     1  UNL1       -0.0756
     22 C         140.4265  140.7856  161.4410 C.3     1  UNL1        0.1337
     23 N         139.4818  140.9366  162.5963 N.ar    1  UNL1       -0.2918
     24 C         138.6446  139.8475  163.1988 C.ar    1  UNL1        0.1930
     25 N         137.8539  140.4409  164.3269 N.ar    1  UNL1       -0.1224
     26 N         138.2024  141.8968  164.4216 N.ar    1  UNL1       -0.1328
     27 C         139.2085  142.2032  163.3521 C.ar    1  UNL1        0.1437
     28 C         139.8319  143.5412  163.0852 C.3     1  UNL1        0.0696
     29 C         139.0227  144.6319  162.4484 C.3     1  UNL1        0.0293
     30 C         139.6461  145.9699  162.1814 C.3     1  UNL1        0.0898
     31 N         141.0786  146.2171  162.5514 N.am    1  UNL1       -0.3043
     32 C         141.8878  145.1263  163.1882 C.2     1  UNL1        0.2229
     33 O         143.3203  145.3735  163.5581 O.2     1  UNL1       -0.2751
     34 C         141.2643  143.7883  163.4551 C.3     1  UNL1        0.0926
     35 H         141.4878  147.0952  162.3762 H       1  UNL1        0.1494
@<TRIPOS>BOND
     1    22    23    1
     2    23    24   ar
     3    24    21    1
     4    21    20    1
     5    20    19    1
     6    19     1    1
     7     1     2    1
     8     2     3    1
     9     3     4    1
    10     5     4    1
    11     5     6    1
    12     6     7    1
    13     7     9    1
    14     9    10   ar
    15    10    11   ar
    16    11    12   ar
    17    12    15    1
    18    15    16    1
    19    15    17    1
    20    15    18    1
    21    12    13   ar
    22    13    14   ar
    23     5     8    1
    24    24    25   ar
    25    25    26   ar
    26    26    27   ar
    27    27    28    1
    28    28    29    1
    29    29    30    1
    30    30    31    1
    31    31    32   am
    32    32    33    2
    33    32    34    1
    34    27    23   ar
    35    34    28    1
    36     8     2    1
    37     7     5    1
    38    14     9   ar
    39    31    35    1
@<TRIPOS>MOLECULE
*****
 35 39 0 0 0
SMALL
GASTEIGER

@<TRIPOS>ATOM
      1 C         142.0296  144.1383  161.3807 C.3     1  UNL1        0.0730
      2 N         143.1073  143.2368  161.9061 N.3     1  UNL1       -0.2726
      3 C         144.4021  142.9176  161.2194 C.3     1  UNL1        0.0721
      4 C         145.1744  141.9798  162.0993 C.3     1  UNL1        0.0190
      5 C         144.3569  141.7195  163.3297 C.3     1  UNL1        0.0201
      6 C         145.3432  140.7958  163.9808 C.3     1  UNL1        0.0061
      7 C         144.0483  141.1151  164.6674 C.3     1  UNL1        0.0237
      8 C         143.0793  142.4964  163.2103 C.3     1  UNL1        0.0724
      9 C         143.1226  140.9505  165.8362 C.ar    1  UNL1       -0.0225
     10 C         142.9953  142.0465  166.8523 C.ar    1  UNL1       -0.0043
     11 C         142.0697  141.8818  168.0211 C.ar    1  UNL1        0.0035
     12 C         141.2713  140.6212  168.1736 C.ar    1  UNL1        0.0714
     13 C         141.3986  139.5252  167.1575 C.ar    1  UNL1        0.0035
     14 C         142.3242  139.6898  165.9887 C.ar    1  UNL1       -0.0043
     15 C         140.3456  140.4566  169.3424 C.3     1  UNL1        0.4186
     16 F         139.4198  140.2919  170.5112 F       1  UNL1       -0.1659
     17 F         139.5761  141.6670  168.9034 F       1  UNL1       -0.1659
     18 F         141.1151  139.2462  169.7814 F       1  UNL1       -0.1659
     19 C         141.4445  145.2010  162.2629 C.3     1  UNL1        0.0294
     20 C         140.0576  145.7107  162.0046 C.3     1  UNL1        0.0666
     21 S         138.9101  145.2158  162.8342 S.3     1  UNL1       -0.0756
     22 C         139.8086  142.9430  164.9967 C.3     1  UNL1        0.1337
     23 N         138.9424  142.7207  163.7924 N.ar    1  UNL1       -0.2918
     24 C         138.5294  143.7654  162.7984 C.ar    1  UNL1        0.1930
     25 N         137.6688  143.1050  161.7624 N.ar    1  UNL1       -0.1224
     26 N         137.5500  141.6522  162.1160 N.ar    1  UNL1       -0.1328
     27 C         138.3371  141.4146  163.3707 C.ar    1  UNL1        0.1437
     28 C         138.4917  140.1015  164.0791 C.3     1  UNL1        0.0696
     29 C         139.1141  138.9354  163.3700 C.3     1  UNL1        0.0293
     30 C         139.2688  137.6223  164.0785 C.3     1  UNL1        0.0898
     31 N         138.8009  137.4754  165.4961 N.am    1  UNL1       -0.3043
     32 C         138.1785  138.6415  166.2052 C.2     1  UNL1        0.2229
     33 O         137.7107  138.4945  167.6228 O.2     1  UNL1       -0.2751
     34 C         138.0239  139.9546  165.4967 C.3     1  UNL1        0.0926
     35 H         138.9024  136.6136  165.9612 H       1  UNL1        0.1494
@<TRIPOS>BOND
     1    22    23    1
     2    23    24   ar
     3    24    21    1
     4    21    20    1
     5    20    19    1
     6    19     1    1
     7     1     2    1
     8     2     3    1
     9     3     4    1
    10     5     4    1
    11     5     6    1
    12     6     7    1
    13     7     9    1
    14     9    10   ar
    15    10    11   ar
    16    11    12   ar
    17    12    15    1
    18    15    16    1
    19    15    17    1
    20    15    18    1
    21    12    13   ar
    22    13    14   ar
    23     5     8    1
    24    24    25   ar
    25    25    26   ar
    26    26    27   ar
    27    27    28    1
    28    28    29    1
    29    29    30    1
    30    30    31    1
    31    31    32   am
    32    32    33    2
    33    32    34    1
    34    27    23   ar
    35    34    28    1
    36     8     2    1
    37     7     5    1
    38    14     9   ar
    39    31    35    1
@<TRIPOS>MOLECULE
*****
 35 39 0 0 0
SMALL
GASTEIGER

@<TRIPOS>ATOM
      1 C         144.5037  143.1716  163.3941 C.3     1  UNL1        0.0730
      2 N         143.1076  143.7079  163.5099 N.3     1  UNL1       -0.2726
      3 C         142.4632  144.6963  162.5837 C.3     1  UNL1        0.0721
      4 C         141.0681  144.9491  163.0736 C.3     1  UNL1        0.0190
      5 C         140.8504  144.1169  164.3025 C.3     1  UNL1        0.0201
      6 C         139.4392  144.5632  164.5461 C.3     1  UNL1        0.0061
      7 C         140.0837  143.5748  165.4722 C.3     1  UNL1        0.0237
      8 C         142.1109  143.3498  164.5721 C.3     1  UNL1        0.0724
      9 C         140.0131  142.6912  166.6823 C.ar    1  UNL1       -0.0225
     10 C         140.2900  143.2590  168.0428 C.ar    1  UNL1       -0.0043
     11 C         140.2194  142.3753  169.2528 C.ar    1  UNL1        0.0035
     12 C         139.8720  140.9239  169.1023 C.ar    1  UNL1        0.0714
     13 C         139.5951  140.3561  167.7418 C.ar    1  UNL1        0.0035
     14 C         139.6657  141.2398  166.5317 C.ar    1  UNL1       -0.0043
     15 C         139.8014  140.0403  170.3123 C.3     1  UNL1        0.4186
     16 F         139.7308  139.1566  171.5224 F       1  UNL1       -0.1659
     17 F         141.2900  139.8608  170.2681 F       1  UNL1       -0.1659
     18 F         138.3129  140.2197  170.3565 F       1  UNL1       -0.1659
     19 C         144.9645  142.0759  164.3089 C.3     1  UNL1        0.0294
     20 C         145.5060  140.7993  163.7370 C.3     1  UNL1        0.0666
     21 S         145.0145  139.4789  164.2516 S.3     1  UNL1       -0.0756
     22 C         142.7792  140.2220  161.9931 C.3     1  UNL1        0.1337
     23 N         142.5139  139.5546  163.3100 N.ar    1  UNL1       -0.2918
     24 C         143.5413  139.2131  164.3481 C.ar    1  UNL1        0.1930
     25 N         142.8371  138.5590  165.4998 N.ar    1  UNL1       -0.1224
     26 N         141.3744  138.4963  165.1734 N.ar    1  UNL1       -0.1328
     27 C         141.1746  139.1116  163.8200 C.ar    1  UNL1        0.1437
     28 C         139.8654  139.2582  163.1027 C.3     1  UNL1        0.0696
     29 C         139.1998  138.0550  162.5032 C.3     1  UNL1        0.0293
     30 C         137.8906  138.2016  161.7859 C.3     1  UNL1        0.0898
     31 N         137.2471  139.5515  161.6681 N.am    1  UNL1       -0.3043
     32 C         137.9127  140.7546  162.2675 C.2     1  UNL1        0.2229
     33 O         137.2691  142.1044  162.1497 O.2     1  UNL1       -0.2751
     34 C         139.2219  140.6080  162.9849 C.3     1  UNL1        0.0926
     35 H         136.3878  139.6477  161.1973 H       1  UNL1        0.1494
@<TRIPOS>BOND
     1    22    23    1
     2    23    24   ar
     3    24    21    1
     4    21    20    1
     5    20    19    1
     6    19     1    1
     7     1     2    1
     8     2     3    1
     9     3     4    1
    10     5     4    1
    11     5     6    1
    12     6     7    1
    13     7     9    1
    14     9    10   ar
    15    10    11   ar
    16    11    12   ar
    17    12    15    1
    18    15    16    1
    19    15    17    1
    20    15    18    1
    21    12    13   ar
    22    13    14   ar
    23     5     8    1
    24    24    25   ar
    25    25    26   ar
    26    26    27   ar
    27    27    28    1
    28    28    29    1
    29    29    30    1
    30    30    31    1
    31    31    32   am
    32    32    33    2
    33    32    34    1
    34    27    23   ar
    35    34    28    1
    36     8     2    1
    37     7     5    1
    38    14     9   ar
    39    31    35    1
@<TRIPOS>MOLECULE
*****
 35 39 0 0 0
SMALL
GASTEIGER

@<TRIPOS>ATOM
      1 C         137.7585  142.4260  161.8996 C.3     1  UNL1        0.0730
      2 N         137.9859  140.9581  162.1083 N.3     1  UNL1       -0.2726
      3 C         137.4583  139.8524  161.2430 C.3     1  UNL1        0.0721
      4 C         137.9272  138.5492  161.8190 C.3     1  UNL1        0.0190
      5 C         138.7447  138.8495  163.0403 C.3     1  UNL1        0.0201
      6 C         139.0563  137.4210  163.3755 C.3     1  UNL1        0.0061
      7 C         139.5840  138.5268  164.2409 C.3     1  UNL1        0.0237
      8 C         138.7810  140.3383  163.2191 C.3     1  UNL1        0.0724
      9 C         140.3732  138.9790  165.4337 C.ar    1  UNL1       -0.0225
     10 C         139.6738  139.6138  166.5989 C.ar    1  UNL1       -0.0043
     11 C         140.4630  140.0660  167.7917 C.ar    1  UNL1        0.0035
     12 C         141.9515  139.8832  167.8192 C.ar    1  UNL1        0.0714
     13 C         142.6509  139.2484  166.6539 C.ar    1  UNL1        0.0035
     14 C         141.8617  138.7962  165.4611 C.ar    1  UNL1       -0.0043
     15 C         142.7407  140.3354  169.0119 C.3     1  UNL1        0.4186
     16 F         143.5300  140.7875  170.2048 F       1  UNL1       -0.1659
     17 F         142.7984  141.7239  168.4475 F       1  UNL1       -0.1659
     18 F         142.6831  138.9469  169.5764 F       1  UNL1       -0.1659
     19 C         137.7510  143.3584  163.0746 C.3     1  UNL1        0.0294
     20 C         138.2012  144.7794  162.9074 C.3     1  UNL1        0.0666
     21 S         139.6278  145.1517  163.1836 S.3     1  UNL1       -0.0756
     22 C         140.9952  142.6316  164.7421 C.3     1  UNL1        0.1337
     23 N         141.3699  143.1338  163.3792 N.ar    1  UNL1       -0.2918
     24 C         140.7413  144.2921  162.6628 C.ar    1  UNL1        0.1930
     25 N         141.4219  144.4401  161.3343 N.ar    1  UNL1       -0.1224
     26 N         142.4710  143.3731  161.2295 N.ar    1  UNL1       -0.1328
     27 C         142.4389  142.5658  162.4934 C.ar    1  UNL1        0.1437
     28 C         143.3209  141.3958  162.8149 C.3     1  UNL1        0.0696
     29 C         144.3769  141.5211  163.8728 C.3     1  UNL1        0.0293
     30 C         145.2589  140.3511  164.1944 C.3     1  UNL1        0.0898
     31 N         145.0849  139.0560  163.4578 N.am    1  UNL1       -0.3043
     32 C         144.0290  138.9308  162.3998 C.2     1  UNL1        0.2229
     33 O         143.8551  137.6357  161.6633 O.2     1  UNL1       -0.2751
     34 C         143.1470  140.1008  162.0783 C.3     1  UNL1        0.0926
     35 H         145.6638  138.2881  163.6688 H       1  UNL1        0.1494
@<TRIPOS>BOND
     1    22    23    1
     2    23    24   ar
     3    24    21    1
     4    21    20    1
     5    20    19    1
     6    19     1    1
     7     1     2    1
     8     2     3    1
     9     3     4    1
    10     5     4    1
    11     5     6    1
    12     6     7    1
    13     7     9    1
    14     9    10   ar
    15    10    11   ar
    16    11    12   ar
    17    12    15    1
    18    15    16    1
    19    15    17    1
    20    15    18    1
    21    12    13   ar
    22    13    14   ar
    23     5     8    1
    24    24    25   ar
    25    25    26   ar
    26    26    27   ar
    27    27    28    1
    28    28    29    1
    29    29    30    1
    30    30    31    1
    31    31    32   am
    32    32    33    2
    33    32    34    1
    34    27    23   ar
    35    34    28    1
    36     8     2    1
    37     7     5    1
    38    14     9   ar
    39    31    35    1
@<TRIPOS>MOLECULE
*****
 35 39 0 0 0
SMALL
GASTEIGER

@<TRIPOS>ATOM
      1 C         144.0980  139.3924  160.6922 C.3     1  UNL1        0.0730
      2 N         142.6897  139.1218  160.2522 N.3     1  UNL1       -0.2726
      3 C         142.2330  138.9082  158.8395 C.3     1  UNL1        0.0721
      4 C         140.7519  138.6717  158.8619 C.3     1  UNL1        0.0190
      5 C         140.2933  138.7391  160.2885 C.3     1  UNL1        0.0201
      6 C         138.8448  138.4771  160.0000 C.3     1  UNL1        0.0061
      7 C         139.3015  138.6906  161.4128 C.3     1  UNL1        0.0237
      8 C         141.4909  139.0173  161.1477 C.3     1  UNL1        0.0724
      9 C         138.9926  138.7860  162.8775 C.ar    1  UNL1       -0.0225
     10 C         139.1864  137.5917  163.7642 C.ar    1  UNL1       -0.0043
     11 C         138.8775  137.6870  165.2289 C.ar    1  UNL1        0.0035
     12 C         138.3748  138.9766  165.8070 C.ar    1  UNL1        0.0714
     13 C         138.1810  140.1709  164.9203 C.ar    1  UNL1        0.0035
     14 C         138.4899  140.0756  163.4556 C.ar    1  UNL1       -0.0043
     15 C         138.0659  139.0719  167.2717 C.3     1  UNL1        0.4186
     16 F         137.7569  139.1672  168.7365 F       1  UNL1       -0.1659
     17 F         138.9619  140.2697  167.3827 F       1  UNL1       -0.1659
     18 F         137.1698  137.8741  167.1607 F       1  UNL1       -0.1659
     19 C         144.3573  140.0451  162.0176 C.3     1  UNL1        0.0294
     20 C         144.3943  139.2163  163.2674 C.3     1  UNL1        0.0666
     21 S         143.1279  138.9414  164.0227 S.3     1  UNL1       -0.0756
     22 C         141.7756  141.2657  165.8717 C.3     1  UNL1        0.1337
     23 N         142.5030  140.0530  166.3720 N.ar    1  UNL1       -0.2918
     24 C         143.1246  138.9846  165.5221 C.ar    1  UNL1        0.1930
     25 N         143.7423  137.9671  166.4348 N.ar    1  UNL1       -0.1224
     26 N         143.5025  138.4066  167.8488 N.ar    1  UNL1       -0.1328
     27 C         142.7366  139.6957  167.8100 C.ar    1  UNL1        0.1437
     28 C         142.2837  140.4884  169.0002 C.3     1  UNL1        0.0696
     29 C         141.1613  139.9811  169.8563 C.3     1  UNL1        0.0293
     30 C         140.7084  140.7737  171.0465 C.3     1  UNL1        0.0898
     31 N         141.3781  142.0738  171.3806 N.am    1  UNL1       -0.3043
     32 C         142.5005  142.5811  170.5246 C.2     1  UNL1        0.2229
     33 O         143.1701  143.8810  170.8588 O.2     1  UNL1       -0.2751
     34 C         142.9533  141.7883  169.3344 C.3     1  UNL1        0.0926
     35 H         141.0809  142.5940  172.1618 H       1  UNL1        0.1494
@<TRIPOS>BOND
     1    22    23    1
     2    23    24   ar
     3    24    21    1
     4    21    20    1
     5    20    19    1
     6    19     1    1
     7     1     2    1
     8     2     3    1
     9     3     4    1
    10     5     4    1
    11     5     6    1
    12     6     7    1
    13     7     9    1
    14     9    10   ar
    15    10    11   ar
    16    11    12   ar
    17    12    15    1
    18    15    16    1
    19    15    17    1
    20    15    18    1
    21    12    13   ar
    22    13    14   ar
    23     5     8    1
    24    24    25   ar
    25    25    26   ar
    26    26    27   ar
    27    27    28    1
    28    28    29    1
    29    29    30    1
    30    30    31    1
    31    31    32   am
    32    32    33    2
    33    32    34    1
    34    27    23   ar
    35    34    28    1
    36     8     2    1
    37     7     5    1
    38    14     9   ar
    39    31    35    1
@<TRIPOS>MOLECULE
*****
 35 39 0 0 0
SMALL
GASTEIGER

@<TRIPOS>ATOM
      1 C         137.9558  139.1244  162.7667 C.3     1  UNL1        0.0730
      2 N         138.1230  140.5340  163.2513 N.3     1  UNL1       -0.2726
      3 C         137.5516  141.7618  162.6061 C.3     1  UNL1        0.0721
      4 C         137.9664  142.9499  163.4223 C.3     1  UNL1        0.0190
      5 C         138.7941  142.4566  164.5719 C.3     1  UNL1        0.0201
      6 C         139.0469  143.8069  165.1740 C.3     1  UNL1        0.0061
      7 C         139.6182  142.5792  165.8192 C.3     1  UNL1        0.0237
      8 C         138.8909  140.9634  164.4662 C.3     1  UNL1        0.0724
      9 C         140.4239  141.9412  166.9118 C.ar    1  UNL1       -0.0225
     10 C         139.8872  140.7433  167.6377 C.ar    1  UNL1       -0.0043
     11 C         140.6928  140.1053  168.7303 C.ar    1  UNL1        0.0035
     12 C         142.0352  140.6652  169.0970 C.ar    1  UNL1        0.0714
     13 C         142.5720  141.8631  168.3711 C.ar    1  UNL1        0.0035
     14 C         141.7663  142.5011  167.2785 C.ar    1  UNL1       -0.0043
     15 C         142.8409  140.0271  170.1896 C.3     1  UNL1        0.4186
     16 F         143.6467  139.3891  171.2823 F       1  UNL1       -0.1659
     17 F         141.8992  138.8597  170.2023 F       1  UNL1       -0.1659
     18 F         143.7827  141.1946  170.1769 F       1  UNL1       -0.1659
     19 C         138.7945  138.0262  163.3503 C.3     1  UNL1        0.0294
     20 C         139.8752  137.3897  162.5275 C.3     1  UNL1        0.0666
     21 S         141.3031  137.4600  162.9815 S.3     1  UNL1       -0.0756
     22 C         141.2335  140.3540  161.4750 C.3     1  UNL1        0.1337
     23 N         141.8251  140.0769  162.8252 N.ar    1  UNL1       -0.2918
     24 C         141.8572  138.7467  163.5177 C.ar    1  UNL1        0.1930
     25 N         142.5405  138.9290  164.8405 N.ar    1  UNL1       -0.1224
     26 N         142.9308  140.3719  164.9656 N.ar    1  UNL1       -0.1328
     27 C         142.4887  141.0814  163.7201 C.ar    1  UNL1        0.1437
     28 C         142.6771  142.5393  163.4218 C.3     1  UNL1        0.0696
     29 C         143.7549  143.3145  164.1199 C.3     1  UNL1        0.0293
     30 C         143.9432  144.7725  163.8217 C.3     1  UNL1        0.0898
     31 N         143.0537  145.4551  162.8252 N.am    1  UNL1       -0.3043
     32 C         141.9759  144.6799  162.1271 C.2     1  UNL1        0.2229
     33 O         141.0865  145.3627  161.1308 O.2     1  UNL1       -0.2751
     34 C         141.7876  143.2220  162.4255 C.3     1  UNL1        0.0926
     35 H         143.1773  146.4120  162.6295 H       1  UNL1        0.1494
@<TRIPOS>BOND
     1    22    23    1
     2    23    24   ar
     3    24    21    1
     4    21    20    1
     5    20    19    1
     6    19     1    1
     7     1     2    1
     8     2     3    1
     9     3     4    1
    10     5     4    1
    11     5     6    1
    12     6     7    1
    13     7     9    1
    14     9    10   ar
    15    10    11   ar
    16    11    12   ar
    17    12    15    1
    18    15    16    1
    19    15    17    1
    20    15    18    1
    21    12    13   ar
    22    13    14   ar
    23     5     8    1
    24    24    25   ar
    25    25    26   ar
    26    26    27   ar
    27    27    28    1
    28    28    29    1
    29    29    30    1
    30    30    31    1
    31    31    32   am
    32    32    33    2
    33    32    34    1
    34    27    23   ar
    35    34    28    1
    36     8     2    1
    37     7     5    1
    38    14     9   ar
    39    31    35    1
@<TRIPOS>MOLECULE
*****
 35 39 0 0 0
SMALL
GASTEIGER

@<TRIPOS>ATOM
      1 C         144.2465  144.0886  162.6252 C.3     1  UNL1        0.0730
      2 N         144.3376  142.6905  163.1610 N.3     1  UNL1       -0.2726
      3 C         145.0871  141.5528  162.5334 C.3     1  UNL1        0.0721
      4 C         144.9078  140.3438  163.4030 C.3     1  UNL1        0.0190
      5 C         144.0474  140.7343  164.5681 C.3     1  UNL1        0.0201
      6 C         144.0480  139.3847  165.2227 C.3     1  UNL1        0.0061
      7 C         143.2985  140.5224  165.8504 C.3     1  UNL1        0.0237
      8 C         143.6950  142.1846  164.4185 C.3     1  UNL1        0.0724
      9 C         142.4334  141.0569  166.9530 C.ar    1  UNL1       -0.0225
     10 C         142.9190  142.1931  167.8035 C.ar    1  UNL1       -0.0043
     11 C         142.0539  142.7276  168.9061 C.ar    1  UNL1        0.0035
     12 C         140.7032  142.1259  169.1583 C.ar    1  UNL1        0.0714
     13 C         140.2176  140.9897  168.3079 C.ar    1  UNL1        0.0035
     14 C         141.0827  140.4552  167.2052 C.ar    1  UNL1       -0.0043
     15 C         139.8381  142.6605  170.2610 C.3     1  UNL1        0.4186
     16 F         138.9729  143.1950  171.3637 F       1  UNL1       -0.1659
     17 F         140.6448  143.9249  170.2810 F       1  UNL1       -0.1659
     18 F         139.0314  141.3960  170.2410 F       1  UNL1       -0.1659
     19 C         143.7144  145.1909  163.4922 C.3     1  UNL1        0.0294
     20 C         142.2457  145.4957  163.5011 C.3     1  UNL1        0.0666
     21 S         141.3706  145.0020  162.3874 S.3     1  UNL1       -0.0756
     22 C         140.4311  143.1861  164.9309 C.3     1  UNL1        0.1337
     23 N         140.5301  142.7249  163.5070 N.ar    1  UNL1       -0.2918
     24 C         140.9619  143.5596  162.3379 C.ar    1  UNL1        0.1930
     25 N         140.9133  142.6986  161.1105 N.ar    1  UNL1       -0.1224
     26 N         140.4514  141.3318  161.5211 N.ar    1  UNL1       -0.1328
     27 C         140.2146  141.3480  163.0022 C.ar    1  UNL1        0.1437
     28 C         139.7447  140.1906  163.8327 C.3     1  UNL1        0.0696
     29 C         138.4815  140.3059  164.6333 C.3     1  UNL1        0.0293
     30 C         138.0117  139.1485  165.4638 C.3     1  UNL1        0.0898
     31 N         138.8051  137.8758  165.4936 N.am    1  UNL1       -0.3043
     32 C         140.0684  137.7606  164.6930 C.2     1  UNL1        0.2229
     33 O         140.8617  136.4879  164.7229 O.2     1  UNL1       -0.2751
     34 C         140.5381  138.9180  163.8625 C.3     1  UNL1        0.0926
     35 H         138.4968  137.1162  166.0387 H       1  UNL1        0.1494
@<TRIPOS>BOND
     1    22    23    1
     2    23    24   ar
     3    24    21    1
     4    21    20    1
     5    20    19    1
     6    19     1    1
     7     1     2    1
     8     2     3    1
     9     3     4    1
    10     5     4    1
    11     5     6    1
    12     6     7    1
    13     7     9    1
    14     9    10   ar
    15    10    11   ar
    16    11    12   ar
    17    12    15    1
    18    15    16    1
    19    15    17    1
    20    15    18    1
    21    12    13   ar
    22    13    14   ar
    23     5     8    1
    24    24    25   ar
    25    25    26   ar
    26    26    27   ar
    27    27    28    1
    28    28    29    1
    29    29    30    1
    30    30    31    1
    31    31    32   am
    32    32    33    2
    33    32    34    1
    34    27    23   ar
    35    34    28    1
    36     8     2    1
    37     7     5    1
    38    14     9   ar
    39    31    35    1
@<TRIPOS>MOLECULE
*****
 35 39 0 0 0
SMALL
GASTEIGER

@<TRIPOS>ATOM
      1 C         141.3120  142.8046  159.4380 C.3     1  UNL1        0.0730
      2 N         140.9510  143.6041  160.6548 N.3     1  UNL1       -0.2726
      3 C         141.0883  145.0901  160.8061 C.3     1  UNL1        0.0721
      4 C         140.6115  145.4623  162.1787 C.3     1  UNL1        0.0190
      5 C         140.1795  144.2063  162.8758 C.3     1  UNL1        0.0201
      6 C         139.7754  144.8700  164.1588 C.3     1  UNL1        0.0061
      7 C         139.6381  143.3840  164.0075 C.3     1  UNL1        0.0237
      8 C         140.3894  143.0578  161.9340 C.3     1  UNL1        0.0724
      9 C         139.2462  142.0513  164.5735 C.ar    1  UNL1       -0.0225
     10 C         138.4632  141.0825  163.7379 C.ar    1  UNL1       -0.0043
     11 C         138.0714  139.7498  164.3039 C.ar    1  UNL1        0.0035
     12 C         138.4625  139.3860  165.7056 C.ar    1  UNL1        0.0714
     13 C         139.2455  140.3549  166.5412 C.ar    1  UNL1        0.0035
     14 C         139.6373  141.6875  165.9752 C.ar    1  UNL1       -0.0043
     15 C         138.0706  138.0533  166.2716 C.3     1  UNL1        0.4186
     16 F         137.6787  136.7206  166.8377 F       1  UNL1       -0.1659
     17 F         138.8201  137.3649  165.1696 F       1  UNL1       -0.1659
     18 F         137.3211  138.7418  167.3736 F       1  UNL1       -0.1659
     19 C         142.6446  142.1207  159.3582 C.3     1  UNL1        0.0294
     20 C         143.8955  142.8723  159.7051 C.3     1  UNL1        0.0666
     21 S         144.7311  142.4394  160.8731 S.3     1  UNL1       -0.0756
     22 C         144.3729  140.1328  163.1536 C.3     1  UNL1        0.1337
     23 N         144.0678  141.5920  163.3199 N.ar    1  UNL1       -0.2918
     24 C         144.2325  142.6522  162.2717 C.ar    1  UNL1        0.1930
     25 N         143.8110  143.9627  162.8676 N.ar    1  UNL1       -0.1224
     26 N         143.3859  143.7123  164.2842 N.ar    1  UNL1       -0.1328
     27 C         143.5446  142.2471  164.5638 C.ar    1  UNL1        0.1437
     28 C         143.2345  141.5582  165.8596 C.3     1  UNL1        0.0696
     29 C         143.0054  140.0760  165.8849 C.3     1  UNL1        0.0293
     30 C         142.6953  139.3870  167.1807 C.3     1  UNL1        0.0898
     31 N         142.6144  140.1803  168.4513 N.am    1  UNL1       -0.3043
     32 C         142.8434  141.6625  168.4260 C.2     1  UNL1        0.2229
     33 O         142.7624  142.4557  169.6965 O.2     1  UNL1       -0.2751
     34 C         143.1535  142.3514  167.1301 C.3     1  UNL1        0.0926
     35 H         142.4108  139.7282  169.3018 H       1  UNL1        0.1494
@<TRIPOS>BOND
     1    22    23    1
     2    23    24   ar
     3    24    21    1
     4    21    20    1
     5    20    19    1
     6    19     1    1
     7     1     2    1
     8     2     3    1
     9     3     4    1
    10     5     4    1
    11     5     6    1
    12     6     7    1
    13     7     9    1
    14     9    10   ar
    15    10    11   ar
    16    11    12   ar
    17    12    15    1
    18    15    16    1
    19    15    17    1
    20    15    18    1
    21    12    13   ar
    22    13    14   ar
    23     5     8    1
    24    24    25   ar
    25    25    26   ar
    26    26    27   ar
    27    27    28    1
    28    28    29    1
    29    29    30    1
    30    30    31    1
    31    31    32   am
    32    32    33    2
    33    32    34    1
    34    27    23   ar
    35    34    28    1
    36     8     2    1
    37     7     5    1
    38    14     9   ar
    39    31    35    1
@<TRIPOS>MOLECULE
*****
 35 39 0 0 0
SMALL
GASTEIGER

@<TRIPOS>ATOM
      1 C         143.4705  138.7496  160.4398 C.3     1  UNL1        0.0730
      2 N         142.0745  138.9443  159.9266 N.3     1  UNL1       -0.2726
      3 C         141.4665  138.2539  158.7418 C.3     1  UNL1        0.0721
      4 C         140.0577  138.7464  158.5911 C.3     1  UNL1        0.0190
      5 C         139.7950  139.7412  159.6826 C.3     1  UNL1        0.0201
      6 C         138.3793  140.0387  159.2864 C.3     1  UNL1        0.0061
      7 C         138.9873  140.7291  160.4711 C.3     1  UNL1        0.0237
      8 C         141.0415  139.8634  160.5081 C.3     1  UNL1        0.0724
      9 C         138.8721  141.6980  161.6104 C.ar    1  UNL1       -0.0225
     10 C         139.4310  143.0835  161.4761 C.ar    1  UNL1       -0.0043
     11 C         139.3158  144.0524  162.6153 C.ar    1  UNL1        0.0035
     12 C         138.6416  143.6358  163.8888 C.ar    1  UNL1        0.0714
     13 C         138.0827  142.2503  164.0232 C.ar    1  UNL1        0.0035
     14 C         138.1979  141.2814  162.8839 C.ar    1  UNL1       -0.0043
     15 C         138.5264  144.6047  165.0281 C.3     1  UNL1        0.4186
     16 F         138.4111  145.5737  166.1674 F       1  UNL1       -0.1659
     17 F         139.9884  144.9184  164.9093 F       1  UNL1       -0.1659
     18 F         137.0643  144.2911  165.1469 F       1  UNL1       -0.1659
     19 C         143.6955  138.1047  161.7753 C.3     1  UNL1        0.0294
     20 C         143.6189  138.9267  163.0277 C.3     1  UNL1        0.0666
     21 S         142.4755  138.7380  163.9800 S.3     1  UNL1       -0.0756
     22 C         141.1053  140.9805  165.9147 C.3     1  UNL1        0.1337
     23 N         142.0676  139.9136  166.3456 N.ar    1  UNL1       -0.2918
     24 C         142.6974  138.8829  165.4564 C.ar    1  UNL1        0.1930
     25 N         143.5881  138.0224  166.3027 N.ar    1  UNL1       -0.1224
     26 N         143.5088  138.5213  167.7150 N.ar    1  UNL1       -0.1328
     27 C         142.5690  139.6902  167.7416 C.ar    1  UNL1        0.1437
     28 C         142.1963  140.4944  168.9517 C.3     1  UNL1        0.0696
     29 C         141.0517  140.0592  169.8181 C.3     1  UNL1        0.0293
     30 C         140.6789  140.8635  171.0281 C.3     1  UNL1        0.0898
     31 N         141.4508  142.1029  171.3718 N.am    1  UNL1       -0.3043
     32 C         142.5954  142.5381  170.5055 C.2     1  UNL1        0.2229
     33 O         143.3671  143.7775  170.8492 O.2     1  UNL1       -0.2751
     34 C         142.9681  141.7338  169.2954 C.3     1  UNL1        0.0926
     35 H         141.2062  142.6308  172.1660 H       1  UNL1        0.1494
@<TRIPOS>BOND
     1    22    23    1
     2    23    24   ar
     3    24    21    1
     4    21    20    1
     5    20    19    1
     6    19     1    1
     7     1     2    1
     8     2     3    1
     9     3     4    1
    10     5     4    1
    11     5     6    1
    12     6     7    1
    13     7     9    1
    14     9    10   ar
    15    10    11   ar
    16    11    12   ar
    17    12    15    1
    18    15    16    1
    19    15    17    1
    20    15    18    1
    21    12    13   ar
    22    13    14   ar
    23     5     8    1
    24    24    25   ar
    25    25    26   ar
    26    26    27   ar
    27    27    28    1
    28    28    29    1
    29    29    30    1
    30    30    31    1
    31    31    32   am
    32    32    33    2
    33    32    34    1
    34    27    23   ar
    35    34    28    1
    36     8     2    1
    37     7     5    1
    38    14     9   ar
    39    31    35    1
