@<TRIPOS>MOLECULE
*****
 25 28 0 0 0
SMALL
GASTEIGER

@<TRIPOS>ATOM
      1 C         139.9077  140.9107  168.1990 C.ar    1  UNL1        0.2212
      2 N         140.0509  141.8619  167.0481 N.ar    1  UNL1       -0.1987
      3 C         139.5275  141.4847  165.6939 C.ar    1  UNL1        0.1360
      4 C         138.8609  140.1564  165.4907 C.ar    1  UNL1        0.0575
      5 C         138.7177  139.2053  166.6417 C.ar    1  UNL1        0.1582
      6 N         139.2411  139.5824  167.9958 N.ar    1  UNL1       -0.2096
      7 N         139.6707  142.4359  164.5429 N.pl3   1  UNL1       -0.2931
      8 C         140.7276  142.3810  163.4800 C.3     1  UNL1        0.0922
      9 C         140.4922  143.5201  162.5329 C.3     1  UNL1        0.0219
     10 C         140.0149  144.7234  161.7749 C.3     1  UNL1        0.0089
     11 C         139.2897  144.2791  163.0105 C.3     1  UNL1        0.0219
     12 C         138.7820  143.6090  164.2527 C.3     1  UNL1        0.0922
     13 C         140.1580  145.6745  160.6239 C.3     1  UNL1        0.0418
     14 C         140.6704  145.1818  159.3030 C.2     1  UNL1        0.0503
     15 O         139.8817  144.1733  158.5216 O.co2   1  UNL1       -0.5492
     16 O         141.9715  145.6978  158.7636 O.co2   1  UNL1       -0.5492
     17 C         140.4624  144.0304  169.9522 C.3     1  UNL1        0.0216
     18 C         140.6608  142.5801  170.2794 C.3     1  UNL1        0.0773
     19 C         141.1713  141.8212  171.4684 C.3     1  UNL1        0.0413
     20 C         140.9415  140.5289  170.7422 C.3     1  UNL1        0.0952
     21 N         140.4311  141.2878  169.5533 N.pl3   1  UNL1       -0.2797
     22 C         138.0511  137.8770  166.4385 C.3     1  UNL1        0.4350
     23 F         137.3845  136.5487  166.2352 F       1  UNL1       -0.1644
     24 F         137.0135  138.2416  167.4585 F       1  UNL1       -0.1644
     25 F         139.0887  137.5123  165.4184 F       1  UNL1       -0.1644
@<TRIPOS>UNITY_ATOM_ATTR
15 1
charge -1
@<TRIPOS>BOND
     1    18    17    1
     2    18    19    1
     3    19    20    1
     4    20    21    1
     5    21     1    1
     6     1     2   ar
     7     2     3   ar
     8     3     7    1
     9     7     8    1
    10     9     8    1
    11     9    10    1
    12    10    13    1
    13    13    14    1
    14    14    15   ar
    15    14    16   ar
    16    10    11    1
    17    11    12    1
    18     3     4   ar
    19     4     5   ar
    20     5    22    1
    21    22    23    1
    22    22    24    1
    23    22    25    1
    24     5     6   ar
    25    21    18    1
    26     6     1   ar
    27    12     7    1
    28    11     9    1
@<TRIPOS>MOLECULE
*****
 25 28 0 0 0
SMALL
GASTEIGER

@<TRIPOS>ATOM
      1 C         140.5613  141.3795  167.2349 C.ar    1  UNL1        0.2212
      2 N         140.5752  141.9876  165.8637 N.ar    1  UNL1       -0.1987
      3 C         139.7469  141.3853  164.7678 C.ar    1  UNL1        0.1360
      4 C         138.9047  140.1749  165.0430 C.ar    1  UNL1        0.0575
      5 C         138.8909  139.5668  166.4142 C.ar    1  UNL1        0.1582
      6 N         139.7192  140.1691  167.5101 N.ar    1  UNL1       -0.2096
      7 N         139.7607  141.9933  163.3966 N.pl3   1  UNL1       -0.2931
      8 C         140.4416  143.2714  163.0057 C.3     1  UNL1        0.0922
      9 C         140.1977  143.4980  161.5431 C.3     1  UNL1        0.0219
     10 C         139.7938  143.4555  160.0991 C.3     1  UNL1        0.0089
     11 C         139.3660  142.3599  161.0301 C.3     1  UNL1        0.0219
     12 C         139.0959  141.4300  162.1756 C.3     1  UNL1        0.0922
     13 C         139.8075  144.0635  158.7280 C.3     1  UNL1        0.0418
     14 C         140.5657  145.3335  158.4782 C.2     1  UNL1        0.0503
     15 O         141.8770  145.5718  159.1664 O.co2   1  UNL1       -0.5492
     16 O         140.0125  146.3651  157.5402 O.co2   1  UNL1       -0.5492
     17 C         139.8495  142.8792  170.4533 C.3     1  UNL1        0.0216
     18 C         141.0948  142.6030  169.6640 C.3     1  UNL1        0.0773
     19 C         142.5610  142.8337  169.8808 C.3     1  UNL1        0.0413
     20 C         142.8559  142.2125  168.5477 C.3     1  UNL1        0.0952
     21 N         141.3897  141.9819  168.3309 N.pl3   1  UNL1       -0.2797
     22 C         138.0488  138.3564  166.6894 C.3     1  UNL1        0.4350
     23 F         137.2066  137.1460  166.9646 F       1  UNL1       -0.1644
     24 F         137.5383  138.9972  167.9459 F       1  UNL1       -0.1644
     25 F         138.5592  137.7156  165.4329 F       1  UNL1       -0.1644
@<TRIPOS>UNITY_ATOM_ATTR
15 1
charge -1
@<TRIPOS>BOND
     1    18    17    1
     2    18    19    1
     3    19    20    1
     4    20    21    1
     5    21     1    1
     6     1     2   ar
     7     2     3   ar
     8     3     7    1
     9     7     8    1
    10     9     8    1
    11     9    10    1
    12    10    13    1
    13    13    14    1
    14    14    15   ar
    15    14    16   ar
    16    10    11    1
    17    11    12    1
    18     3     4   ar
    19     4     5   ar
    20     5    22    1
    21    22    23    1
    22    22    24    1
    23    22    25    1
    24     5     6   ar
    25    21    18    1
    26     6     1   ar
    27    12     7    1
    28    11     9    1
@<TRIPOS>MOLECULE
*****
 25 28 0 0 0
SMALL
GASTEIGER

@<TRIPOS>ATOM
      1 C         142.6452  142.9636  160.9165 C.ar    1  UNL1        0.2212
      2 N         142.8530  142.5765  162.3507 N.ar    1  UNL1       -0.1987
      3 C         142.1134  143.2993  163.4372 C.ar    1  UNL1        0.1360
      4 C         141.1661  144.4091  163.0896 C.ar    1  UNL1        0.0575
      5 C         140.9583  144.7961  161.6554 C.ar    1  UNL1        0.1582
      6 N         141.6978  144.0733  160.5688 N.ar    1  UNL1       -0.2096
      7 N         142.3212  142.9123  164.8715 N.pl3   1  UNL1       -0.2931
      8 C         143.6446  142.7636  165.5618 C.3     1  UNL1        0.0922
      9 C         143.3834  142.3655  166.9842 C.3     1  UNL1        0.0219
     10 C         142.8208  141.9816  168.3207 C.3     1  UNL1        0.0089
     11 C         141.8985  142.2680  167.1730 C.3     1  UNL1        0.0219
     12 C         141.2421  142.6059  165.8673 C.3     1  UNL1        0.0922
     13 C         143.0286  141.5946  169.7549 C.3     1  UNL1        0.0418
     14 C         142.5836  142.5154  170.8522 C.2     1  UNL1        0.0503
     15 O         143.1573  143.8979  170.9499 O.co2   1  UNL1       -0.5492
     16 O         141.5650  142.0537  171.8519 O.co2   1  UNL1       -0.5492
     17 C         143.5489  139.5129  160.2919 C.3     1  UNL1        0.0216
     18 C         143.7591  140.8115  159.5712 C.3     1  UNL1        0.0773
     19 C         144.4307  141.2186  158.2932 C.3     1  UNL1        0.0413
     20 C         144.0563  142.6479  158.5518 C.3     1  UNL1        0.0952
     21 N         143.3848  142.2408  159.8298 N.pl3   1  UNL1       -0.2797
     22 C         140.0109  145.9059  161.3077 C.3     1  UNL1        0.4350
     23 F         139.0635  147.0156  160.9601 F       1  UNL1       -0.1644
     24 F         140.4800  145.8602  159.8837 F       1  UNL1       -0.1644
     25 F         139.5417  145.9515  162.7317 F       1  UNL1       -0.1644
@<TRIPOS>UNITY_ATOM_ATTR
15 1
charge -1
@<TRIPOS>BOND
     1    18    17    1
     2    18    19    1
     3    19    20    1
     4    20    21    1
     5    21     1    1
     6     1     2   ar
     7     2     3   ar
     8     3     7    1
     9     7     8    1
    10     9     8    1
    11     9    10    1
    12    10    13    1
    13    13    14    1
    14    14    15   ar
    15    14    16   ar
    16    10    11    1
    17    11    12    1
    18     3     4   ar
    19     4     5   ar
    20     5    22    1
    21    22    23    1
    22    22    24    1
    23    22    25    1
    24     5     6   ar
    25    21    18    1
    26     6     1   ar
    27    12     7    1
    28    11     9    1
@<TRIPOS>MOLECULE
*****
 25 28 0 0 0
SMALL
GASTEIGER

@<TRIPOS>ATOM
      1 C         142.4232  142.3059  161.1086 C.ar    1  UNL1        0.2212
      2 N         142.0180  142.6709  162.5059 N.ar    1  UNL1       -0.1987
      3 C         142.1941  141.6824  163.6202 C.ar    1  UNL1        0.1360
      4 C         142.7755  140.3290  163.3373 C.ar    1  UNL1        0.0575
      5 C         143.1808  139.9640  161.9400 C.ar    1  UNL1        0.1582
      6 N         143.0047  140.9524  160.8257 N.ar    1  UNL1       -0.2096
      7 N         141.7888  142.0474  165.0176 N.pl3   1  UNL1       -0.2931
      8 C         142.7012  142.1394  166.2047 C.3     1  UNL1        0.0922
      9 C         141.8763  142.5333  167.3939 C.3     1  UNL1        0.0219
     10 C         140.8141  142.9251  168.3780 C.3     1  UNL1        0.0089
     11 C         140.4540  142.6848  166.9419 C.3     1  UNL1        0.0219
     12 C         140.4000  142.3845  165.4732 C.3     1  UNL1        0.0922
     13 C         140.4088  143.2901  169.7753 C.3     1  UNL1        0.0418
     14 C         139.9314  142.2269  170.7197 C.2     1  UNL1        0.0503
     15 O         140.4694  142.1699  172.1187 O.co2   1  UNL1       -0.5492
     16 O         138.9160  141.2208  170.2649 O.co2   1  UNL1       -0.5492
     17 C         140.5830  145.3972  160.6948 C.3     1  UNL1        0.0216
     18 C         141.4848  144.5749  159.8228 C.3     1  UNL1        0.0773
     19 C         141.9980  144.6924  158.4182 C.3     1  UNL1        0.0413
     20 C         142.7603  143.4119  158.5896 C.3     1  UNL1        0.0952
     21 N         142.2471  143.2944  159.9941 N.pl3   1  UNL1       -0.2797
     22 C         143.7622  138.6105  161.6571 C.3     1  UNL1        0.4350
     23 F         144.3436  137.2570  161.3741 F       1  UNL1       -0.1644
     24 F         143.1738  138.0906  162.9352 F       1  UNL1       -0.1644
     25 F         144.3506  139.1304  160.3790 F       1  UNL1       -0.1644
@<TRIPOS>UNITY_ATOM_ATTR
15 1
charge -1
@<TRIPOS>BOND
     1    18    17    1
     2    18    19    1
     3    19    20    1
     4    20    21    1
     5    21     1    1
     6     1     2   ar
     7     2     3   ar
     8     3     7    1
     9     7     8    1
    10     9     8    1
    11     9    10    1
    12    10    13    1
    13    13    14    1
    14    14    15   ar
    15    14    16   ar
    16    10    11    1
    17    11    12    1
    18     3     4   ar
    19     4     5   ar
    20     5    22    1
    21    22    23    1
    22    22    24    1
    23    22    25    1
    24     5     6   ar
    25    21    18    1
    26     6     1   ar
    27    12     7    1
    28    11     9    1
@<TRIPOS>MOLECULE
*****
 25 28 0 0 0
SMALL
GASTEIGER

@<TRIPOS>ATOM
      1 C         139.0510  141.3731  162.9387 C.ar    1  UNL1        0.2212
      2 N         139.3779  141.9622  161.5986 N.ar    1  UNL1       -0.1987
      3 C         139.4308  143.4513  161.4267 C.ar    1  UNL1        0.1360
      4 C         139.1568  144.3514  162.5950 C.ar    1  UNL1        0.0575
      5 C         138.8299  143.7622  163.9352 C.ar    1  UNL1        0.1582
      6 N         138.7770  142.2731  164.1070 N.ar    1  UNL1       -0.2096
      7 N         139.7577  144.0405  160.0865 N.pl3   1  UNL1       -0.2931
      8 C         139.4657  143.4166  158.7541 C.3     1  UNL1        0.0922
      9 C         139.9616  144.3476  157.6877 C.3     1  UNL1        0.0219
     10 C         140.5440  145.4576  156.8637 C.3     1  UNL1        0.0089
     11 C         140.5601  145.5470  158.3610 C.3     1  UNL1        0.0219
     12 C         140.4341  145.3572  159.8436 C.3     1  UNL1        0.0922
     13 C         140.8709  146.0468  155.5236 C.3     1  UNL1        0.0418
     14 C         140.0444  147.1732  154.9778 C.2     1  UNL1        0.0503
     15 O         138.7808  147.5825  155.6747 O.co2   1  UNL1       -0.5492
     16 O         140.4814  147.8904  153.7349 O.co2   1  UNL1       -0.5492
     17 C         138.3292  139.1376  165.6948 C.3     1  UNL1        0.0216
     18 C         138.6991  138.9579  164.2522 C.3     1  UNL1        0.0773
     19 C         138.9232  137.7778  163.3538 C.3     1  UNL1        0.0413
     20 C         139.2222  138.7037  162.2122 C.3     1  UNL1        0.0952
     21 N         138.9981  139.8838  163.1106 N.pl3   1  UNL1       -0.2797
     22 C         138.5559  144.6623  165.1034 C.3     1  UNL1        0.4350
     23 F         138.2819  145.5623  166.2717 F       1  UNL1       -0.1644
     24 F         137.1192  144.2311  165.0987 F       1  UNL1       -0.1644
     25 F         139.9926  145.0934  165.1082 F       1  UNL1       -0.1644
@<TRIPOS>UNITY_ATOM_ATTR
15 1
charge -1
@<TRIPOS>BOND
     1    18    17    1
     2    18    19    1
     3    19    20    1
     4    20    21    1
     5    21     1    1
     6     1     2   ar
     7     2     3   ar
     8     3     7    1
     9     7     8    1
    10     9     8    1
    11     9    10    1
    12    10    13    1
    13    13    14    1
    14    14    15   ar
    15    14    16   ar
    16    10    11    1
    17    11    12    1
    18     3     4   ar
    19     4     5   ar
    20     5    22    1
    21    22    23    1
    22    22    24    1
    23    22    25    1
    24     5     6   ar
    25    21    18    1
    26     6     1   ar
    27    12     7    1
    28    11     9    1
@<TRIPOS>MOLECULE
*****
 25 28 0 0 0
SMALL
GASTEIGER

@<TRIPOS>ATOM
      1 C         140.6463  142.0316  164.2392 C.ar    1  UNL1        0.2212
      2 N         140.4193  142.6479  162.8907 N.ar    1  UNL1       -0.1987
      3 C         141.4153  143.6214  162.3337 C.ar    1  UNL1        0.1360
      4 C         142.6385  143.9784  163.1253 C.ar    1  UNL1        0.0575
      5 C         142.8655  143.3620  164.4738 C.ar    1  UNL1        0.1582
      6 N         141.8694  142.3886  165.0307 N.ar    1  UNL1       -0.2096
      7 N         141.1883  144.2378  160.9852 N.pl3   1  UNL1       -0.2931
      8 C         140.2055  145.3253  160.6670 C.3     1  UNL1        0.0922
      9 C         140.3141  145.6346  159.2033 C.3     1  UNL1        0.0219
     10 C         140.6425  145.7202  157.7421 C.3     1  UNL1        0.0089
     11 C         141.3641  144.7382  158.6167 C.3     1  UNL1        0.0219
     12 C         141.9044  143.8749  159.7181 C.3     1  UNL1        0.0922
     13 C         140.4156  146.3366  156.3936 C.3     1  UNL1        0.0418
     14 C         139.1093  147.0064  156.0854 C.2     1  UNL1        0.0503
     15 O         138.1917  146.4213  155.0531 O.co2   1  UNL1       -0.5492
     16 O         138.7207  148.2613  156.8094 O.co2   1  UNL1       -0.5492
     17 C         139.9725  140.6520  167.5189 C.3     1  UNL1        0.0216
     18 C         139.3711  140.4866  166.1547 C.3     1  UNL1        0.0773
     19 C         138.2416  139.6814  165.5840 C.3     1  UNL1        0.0413
     20 C         138.5206  140.2529  164.2255 C.3     1  UNL1        0.0952
     21 N         139.6502  141.0581  164.7962 N.pl3   1  UNL1       -0.2797
     22 C         144.0886  143.7190  165.2653 C.3     1  UNL1        0.4350
     23 F         145.3117  144.0760  166.0569 F       1  UNL1       -0.1644
     24 F         144.1485  145.0484  164.5732 F       1  UNL1       -0.1644
     25 F         144.0287  142.3896  165.9575 F       1  UNL1       -0.1644
@<TRIPOS>UNITY_ATOM_ATTR
15 1
charge -1
@<TRIPOS>BOND
     1    18    17    1
     2    18    19    1
     3    19    20    1
     4    20    21    1
     5    21     1    1
     6     1     2   ar
     7     2     3   ar
     8     3     7    1
     9     7     8    1
    10     9     8    1
    11     9    10    1
    12    10    13    1
    13    13    14    1
    14    14    15   ar
    15    14    16   ar
    16    10    11    1
    17    11    12    1
    18     3     4   ar
    19     4     5   ar
    20     5    22    1
    21    22    23    1
    22    22    24    1
    23    22    25    1
    24     5     6   ar
    25    21    18    1
    26     6     1   ar
    27    12     7    1
    28    11     9    1
@<TRIPOS>MOLECULE
*****
 25 28 0 0 0
SMALL
GASTEIGER

@<TRIPOS>ATOM
      1 C         140.2292  140.9954  166.8828 C.ar    1  UNL1        0.2212
      2 N         140.0744  141.4620  165.4657 N.ar    1  UNL1       -0.1987
      3 C         139.1358  140.7474  164.5392 C.ar    1  UNL1        0.1360
      4 C         138.3521  139.5663  165.0298 C.ar    1  UNL1        0.0575
      5 C         138.5069  139.0997  166.4470 C.ar    1  UNL1        0.1582
      6 N         139.4455  139.8143  167.3734 N.ar    1  UNL1       -0.2096
      7 N         138.9809  141.2140  163.1220 N.pl3   1  UNL1       -0.2931
      8 C         139.7420  140.6995  161.9362 C.3     1  UNL1        0.0922
      9 C         139.2692  141.4445  160.7232 C.3     1  UNL1        0.0219
     10 C         138.6083  142.3360  159.7139 C.3     1  UNL1        0.0089
     11 C         138.2158  142.4194  161.1593 C.3     1  UNL1        0.0219
     12 C         138.0377  142.2769  162.6418 C.3     1  UNL1        0.0922
     13 C         138.4534  142.8026  158.2968 C.3     1  UNL1        0.0418
     14 C         137.5573  142.0547  157.3547 C.2     1  UNL1        0.0503
     15 O         137.2929  140.5942  157.5715 O.co2   1  UNL1       -0.5492
     16 O         136.9257  142.7673  156.1956 O.co2   1  UNL1       -0.5492
     17 C         139.9139  142.5872  170.1202 C.3     1  UNL1        0.0216
     18 C         141.0372  142.3693  169.1504 C.3     1  UNL1        0.0773
     19 C         142.4952  142.7205  169.1198 C.3     1  UNL1        0.0413
     20 C         142.6259  142.0611  167.7788 C.3     1  UNL1        0.0952
     21 N         141.1679  141.7100  167.8094 N.pl3   1  UNL1       -0.2797
     22 C         137.7232  137.9186  166.9376 C.3     1  UNL1        0.4350
     23 F         136.9394  136.7375  167.4282 F       1  UNL1       -0.1644
     24 F         137.2457  138.7226  168.1104 F       1  UNL1       -0.1644
     25 F         138.2007  137.1146  165.7648 F       1  UNL1       -0.1644
@<TRIPOS>UNITY_ATOM_ATTR
15 1
charge -1
@<TRIPOS>BOND
     1    18    17    1
     2    18    19    1
     3    19    20    1
     4    20    21    1
     5    21     1    1
     6     1     2   ar
     7     2     3   ar
     8     3     7    1
     9     7     8    1
    10     9     8    1
    11     9    10    1
    12    10    13    1
    13    13    14    1
    14    14    15   ar
    15    14    16   ar
    16    10    11    1
    17    11    12    1
    18     3     4   ar
    19     4     5   ar
    20     5    22    1
    21    22    23    1
    22    22    24    1
    23    22    25    1
    24     5     6   ar
    25    21    18    1
    26     6     1   ar
    27    12     7    1
    28    11     9    1
@<TRIPOS>MOLECULE
*****
 25 28 0 0 0
SMALL
GASTEIGER

@<TRIPOS>ATOM
      1 C         142.9574  137.8493  157.4257 C.ar    1  UNL1        0.2212
      2 N         142.2022  137.5785  158.6931 N.ar    1  UNL1       -0.1987
      3 C         142.1932  138.5981  159.7932 C.ar    1  UNL1        0.1360
      4 C         142.9395  139.8885  159.6259 C.ar    1  UNL1        0.0575
      5 C         143.6948  140.1593  158.3586 C.ar    1  UNL1        0.1582
      6 N         143.7037  139.1397  157.2585 N.ar    1  UNL1       -0.2096
      7 N         141.4379  138.3274  161.0606 N.pl3   1  UNL1       -0.2931
      8 C         142.0399  137.9588  162.3841 C.3     1  UNL1        0.0922
      9 C         140.9221  137.7814  163.3685 C.3     1  UNL1        0.0219
     10 C         139.6215  137.6764  164.1085 C.3     1  UNL1        0.0089
     11 C         139.6292  138.0403  162.6533 C.3     1  UNL1        0.0219
     12 C         139.9480  138.3778  161.2270 C.3     1  UNL1        0.0922
     13 C         138.8662  137.4057  165.3758 C.3     1  UNL1        0.0418
     14 C         138.0977  138.5087  166.0411 C.2     1  UNL1        0.0503
     15 O         137.3026  138.2267  167.2813 O.co2   1  UNL1       -0.5492
     16 O         138.1242  139.8939  165.4661 O.co2   1  UNL1       -0.5492
     17 C         140.4314  136.3281  155.3236 C.3     1  UNL1        0.0216
     18 C         141.9200  136.1996  155.4548 C.3     1  UNL1        0.0773
     19 C         142.9790  135.3877  154.7697 C.3     1  UNL1        0.0413
     20 C         144.0254  136.0178  155.6404 C.3     1  UNL1        0.0952
     21 N         142.9664  136.8296  156.3255 N.pl3   1  UNL1       -0.2797
     22 C         144.4411  141.4496  158.1913 C.3     1  UNL1        0.4350
     23 F         145.1874  142.7400  158.0241 F       1  UNL1       -0.1644
     24 F         143.5430  142.1000  159.2016 F       1  UNL1       -0.1644
     25 F         145.3391  140.7993  157.1810 F       1  UNL1       -0.1644
@<TRIPOS>UNITY_ATOM_ATTR
15 1
charge -1
@<TRIPOS>BOND
     1    18    17    1
     2    18    19    1
     3    19    20    1
     4    20    21    1
     5    21     1    1
     6     1     2   ar
     7     2     3   ar
     8     3     7    1
     9     7     8    1
    10     9     8    1
    11     9    10    1
    12    10    13    1
    13    13    14    1
    14    14    15   ar
    15    14    16   ar
    16    10    11    1
    17    11    12    1
    18     3     4   ar
    19     4     5   ar
    20     5    22    1
    21    22    23    1
    22    22    24    1
    23    22    25    1
    24     5     6   ar
    25    21    18    1
    26     6     1   ar
    27    12     7    1
    28    11     9    1
@<TRIPOS>MOLECULE
*****
 25 28 0 0 0
SMALL
GASTEIGER

@<TRIPOS>ATOM
      1 C         140.9928  141.3945  167.6193 C.ar    1  UNL1        0.2212
      2 N         141.3470  141.8227  166.2261 N.ar    1  UNL1       -0.1987
      3 C         140.6132  141.2421  165.0537 C.ar    1  UNL1        0.1360
      4 C         139.5251  140.2335  165.2746 C.ar    1  UNL1        0.0575
      5 C         139.1709  139.8054  166.6679 C.ar    1  UNL1        0.1582
      6 N         139.9047  140.3859  167.8402 N.ar    1  UNL1       -0.2096
      7 N         140.9674  141.6703  163.6604 N.pl3   1  UNL1       -0.2931
      8 C         142.3508  141.9328  163.1435 C.3     1  UNL1        0.0922
      9 C         142.2387  142.3358  161.7030 C.3     1  UNL1        0.0219
     10 C         141.8190  142.6998  160.3096 C.3     1  UNL1        0.0089
     11 C         140.7860  142.3223  161.3296 C.3     1  UNL1        0.0219
     12 C         140.0003  141.9109  162.5393 C.3     1  UNL1        0.0922
     13 C         142.1732  143.1279  158.9163 C.3     1  UNL1        0.0418
     14 C         143.5521  142.8765  158.3822 C.2     1  UNL1        0.0503
     15 O         144.6892  142.6281  159.3283 O.co2   1  UNL1       -0.5492
     16 O         143.7939  142.8736  156.9017 O.co2   1  UNL1       -0.5492
     17 C         140.3806  144.1123  169.9330 C.3     1  UNL1        0.0216
     18 C         141.4730  143.1008  169.7501 C.3     1  UNL1        0.0773
     19 C         142.7644  142.7961  170.4498 C.3     1  UNL1        0.0413
     20 C         143.0180  141.6703  169.4915 C.3     1  UNL1        0.0952
     21 N         141.7266  141.9750  168.7918 N.pl3   1  UNL1       -0.2797
     22 C         138.0828  138.7968  166.8888 C.3     1  UNL1        0.4350
     23 F         136.9948  137.7881  167.1097 F       1  UNL1       -0.1644
     24 F         137.9684  139.2335  168.3192 F       1  UNL1       -0.1644
     25 F         138.1973  138.3600  165.4583 F       1  UNL1       -0.1644
@<TRIPOS>UNITY_ATOM_ATTR
15 1
charge -1
@<TRIPOS>BOND
     1    18    17    1
     2    18    19    1
     3    19    20    1
     4    20    21    1
     5    21     1    1
     6     1     2   ar
     7     2     3   ar
     8     3     7    1
     9     7     8    1
    10     9     8    1
    11     9    10    1
    12    10    13    1
    13    13    14    1
    14    14    15   ar
    15    14    16   ar
    16    10    11    1
    17    11    12    1
    18     3     4   ar
    19     4     5   ar
    20     5    22    1
    21    22    23    1
    22    22    24    1
    23    22    25    1
    24     5     6   ar
    25    21    18    1
    26     6     1   ar
    27    12     7    1
    28    11     9    1
