@<TRIPOS>MOLECULE
*****
 27 29 0 0 0
SMALL
GASTEIGER

@<TRIPOS>ATOM
      1 C         142.5604  142.0105  167.9877 C.ar    1  UNL1        0.1301
      2 N         143.3379  142.8614  168.9477 N.ar    1  UNL1       -0.1995
      3 C         142.8411  143.0557  170.3496 C.ar    1  UNL1        0.2145
      4 N         143.6187  143.9066  171.3096 N.pl3   1  UNL1       -0.3274
      5 N         141.5670  142.3992  170.7916 N.ar    1  UNL1       -0.2185
      6 C         140.7894  141.5483  169.8317 C.ar    1  UNL1        0.0639
      7 C         141.2861  141.3540  168.4297 C.ar    1  UNL1        0.0429
      8 C         140.5087  140.5032  167.4697 C.3     1  UNL1        0.1244
      9 N         139.2345  139.8467  167.9117 N.am    1  UNL1       -0.2702
     10 C         138.4569  138.9958  166.9517 C.2     1  UNL1        0.2675
     11 O         137.1827  138.3393  167.3937 O.2     1  UNL1       -0.2682
     12 C         138.7378  140.0410  169.3137 C.3     1  UNL1        0.1004
     13 C         139.5152  140.8918  170.2737 C.3     1  UNL1        0.0672
     14 H         144.4550  144.3375  171.0195 H       1  UNL1        0.1452
     15 H         143.2927  144.0341  172.2298 H       1  UNL1        0.1452
     16 C         138.9536  138.8015  165.5498 C.ar    1  UNL1        0.1413
     17 C         138.4197  139.4800  164.3232 C.ar    1  UNL1        0.0603
     18 S         139.2076  138.9924  163.1436 S.2     1  UNL1       -0.0701
     19 C         140.2284  138.0124  163.6411 C.ar    1  UNL1        0.0888
     20 C         141.2303  137.2792  162.7993 C.3     1  UNL1        0.0594
     21 N         140.0714  137.8944  165.1282 N.ar    1  UNL1       -0.2381
     22 N         143.0571  141.8162  166.5857 N.pl3   1  UNL1       -0.3182
     23 H         143.5449  140.9955  166.3457 H       1  UNL1        0.1482
     24 C         142.8105  142.8723  165.5495 C.3     1  UNL1        0.0882
     25 C         143.9676  143.5883  164.9182 C.3     1  UNL1        0.0212
     26 C         142.3348  145.2402  163.7540 C.3     1  UNL1        0.0001
     27 C         143.7322  144.8367  164.1206 C.3     1  UNL1        0.0017
@<TRIPOS>BOND
     1    26    27    1
     2    27    25    1
     3    25    24    1
     4    24    22    1
     5    22     1    1
     6     1     2   ar
     7     2     3   ar
     8     3     4    1
     9     3     5   ar
    10     5     6   ar
    11     6     7   ar
    12     7     8    1
    13     8     9    1
    14     9    10   am
    15    10    11    2
    16    10    16    1
    17    16    17   ar
    18    17    18   ar
    19    18    19   ar
    20    19    20    1
    21    19    21   ar
    22     9    12    1
    23    12    13    1
    24     7     1   ar
    25    21    16   ar
    26    13     6    1
    27    22    23    1
    28     4    14    1
    29     4    15    1
@<TRIPOS>MOLECULE
*****
 27 29 0 0 0
SMALL
GASTEIGER

@<TRIPOS>ATOM
      1 C         142.5878  141.8277  167.2284 C.ar    1  UNL1        0.1301
      2 N         143.6034  142.5382  168.0730 N.ar    1  UNL1       -0.1995
      3 C         143.4561  142.5578  169.5657 C.ar    1  UNL1        0.2145
      4 N         144.4719  143.2684  170.4103 N.pl3   1  UNL1       -0.3274
      5 N         142.2932  141.8668  170.2137 N.ar    1  UNL1       -0.2185
      6 C         141.2774  141.1562  169.3690 C.ar    1  UNL1        0.0639
      7 C         141.4247  141.1367  167.8764 C.ar    1  UNL1        0.0429
      8 C         140.4090  140.4261  167.0317 C.3     1  UNL1        0.1244
      9 N         139.2460  139.7351  167.6797 N.am    1  UNL1       -0.2702
     10 C         138.2302  139.0245  166.8351 C.2     1  UNL1        0.2675
     11 O         137.0672  138.3335  167.4831 O.2     1  UNL1       -0.2682
     12 C         139.0987  139.7547  169.1723 C.3     1  UNL1        0.1004
     13 C         140.1144  140.4652  170.0170 C.3     1  UNL1        0.0672
     14 H         145.2352  143.7219  169.9850 H       1  UNL1        0.1452
     15 H         144.3753  143.2812  171.3900 H       1  UNL1        0.1452
     16 C         138.3775  139.0050  165.3425 C.ar    1  UNL1        0.1413
     17 C         138.9870  137.9004  164.5310 C.ar    1  UNL1        0.0603
     18 S         138.9274  138.2994  163.0862 S.2     1  UNL1       -0.0701
     19 C         138.2810  139.6505  163.0048 C.ar    1  UNL1        0.0888
     20 C         138.0202  140.4289  161.7494 C.3     1  UNL1        0.0594
     21 N         137.9412  140.0866  164.3992 N.ar    1  UNL1       -0.2381
     22 N         142.7350  141.8082  165.7358 N.pl3   1  UNL1       -0.3182
     23 H         142.1703  142.3904  165.1778 H       1  UNL1        0.1482
     24 C         143.7427  140.9016  165.0934 C.3     1  UNL1        0.0882
     25 C         143.2987  139.6176  164.4576 C.3     1  UNL1        0.0212
     26 C         143.7125  138.1468  166.5588 C.3     1  UNL1        0.0001
     27 C         142.9275  138.4448  165.3159 C.3     1  UNL1        0.0017
@<TRIPOS>BOND
     1    26    27    1
     2    27    25    1
     3    25    24    1
     4    24    22    1
     5    22     1    1
     6     1     2   ar
     7     2     3   ar
     8     3     4    1
     9     3     5   ar
    10     5     6   ar
    11     6     7   ar
    12     7     8    1
    13     8     9    1
    14     9    10   am
    15    10    11    2
    16    10    16    1
    17    16    17   ar
    18    17    18   ar
    19    18    19   ar
    20    19    20    1
    21    19    21   ar
    22     9    12    1
    23    12    13    1
    24     7     1   ar
    25    21    16   ar
    26    13     6    1
    27    22    23    1
    28     4    14    1
    29     4    15    1
@<TRIPOS>MOLECULE
*****
 27 29 0 0 0
SMALL
GASTEIGER

@<TRIPOS>ATOM
      1 C         140.7124  142.5442  168.0768 C.ar    1  UNL1        0.1301
      2 N         139.9268  143.2836  169.1189 N.ar    1  UNL1       -0.1995
      3 C         139.8213  142.7326  170.5100 C.ar    1  UNL1        0.2145
      4 N         139.0356  143.4721  171.5521 N.pl3   1  UNL1       -0.3274
      5 N         140.5014  141.4420  170.8590 N.ar    1  UNL1       -0.2185
      6 C         141.2871  140.7024  169.8169 C.ar    1  UNL1        0.0639
      7 C         141.3926  141.2535  168.4258 C.ar    1  UNL1        0.0429
      8 C         142.1782  140.5140  167.3838 C.3     1  UNL1        0.1244
      9 N         142.8583  139.2235  167.7328 N.am    1  UNL1       -0.2702
     10 C         143.6439  138.4839  166.6907 C.2     1  UNL1        0.2675
     11 O         144.3240  137.1934  167.0398 O.2     1  UNL1       -0.2682
     12 C         142.7528  138.6724  169.1239 C.3     1  UNL1        0.1004
     13 C         141.9671  139.4119  170.1660 C.3     1  UNL1        0.0672
     14 H         138.5893  144.3192  171.3230 H       1  UNL1        0.1452
     15 H         138.9664  143.1104  172.4651 H       1  UNL1        0.1452
     16 C         143.7494  139.0350  165.2996 C.ar    1  UNL1        0.1413
     17 C         142.9794  138.5611  164.1028 C.ar    1  UNL1        0.0603
     18 S         143.3976  139.3899  162.9245 S.2     1  UNL1       -0.0701
     19 C         144.4260  140.3762  163.3932 C.ar    1  UNL1        0.0888
     20 C         145.1159  141.4017  162.5433 C.3     1  UNL1        0.0594
     21 N         144.6435  140.1568  164.8611 N.ar    1  UNL1       -0.2381
     22 N         140.8179  143.0952  166.6857 N.pl3   1  UNL1       -0.3182
     23 H         141.6496  143.5320  166.3910 H       1  UNL1        0.1482
     24 C         139.6564  142.9809  165.7436 C.3     1  UNL1        0.0882
     25 C         139.0991  144.2093  165.0874 C.3     1  UNL1        0.0212
     26 C         137.7375  143.8941  162.8973 C.3     1  UNL1        0.0001
     27 C         137.7804  144.1465  164.3753 C.3     1  UNL1        0.0017
@<TRIPOS>BOND
     1    26    27    1
     2    27    25    1
     3    25    24    1
     4    24    22    1
     5    22     1    1
     6     1     2   ar
     7     2     3   ar
     8     3     4    1
     9     3     5   ar
    10     5     6   ar
    11     6     7   ar
    12     7     8    1
    13     8     9    1
    14     9    10   am
    15    10    11    2
    16    10    16    1
    17    16    17   ar
    18    17    18   ar
    19    18    19   ar
    20    19    20    1
    21    19    21   ar
    22     9    12    1
    23    12    13    1
    24     7     1   ar
    25    21    16   ar
    26    13     6    1
    27    22    23    1
    28     4    14    1
    29     4    15    1
@<TRIPOS>MOLECULE
*****
 27 29 0 0 0
SMALL
GASTEIGER

@<TRIPOS>ATOM
      1 C         139.5713  140.1303  167.4660 C.ar    1  UNL1        0.1301
      2 N         139.2837  139.7187  168.8794 N.ar    1  UNL1       -0.1995
      3 C         140.2385  140.0857  169.9765 C.ar    1  UNL1        0.2145
      4 N         139.9508  139.6741  171.3900 N.pl3   1  UNL1       -0.3274
      5 N         141.4808  140.8644  169.6603 N.ar    1  UNL1       -0.2185
      6 C         141.7685  141.2761  168.2468 C.ar    1  UNL1        0.0639
      7 C         140.8138  140.9091  167.1496 C.ar    1  UNL1        0.0429
      8 C         141.1014  141.3207  165.7362 C.3     1  UNL1        0.1244
      9 N         142.3438  142.0994  165.4200 N.am    1  UNL1       -0.2702
     10 C         142.6315  142.5111  164.0065 C.2     1  UNL1        0.2675
     11 O         143.8739  143.2897  163.6902 O.2     1  UNL1       -0.2682
     12 C         143.2986  142.4664  166.5171 C.3     1  UNL1        0.1004
     13 C         143.0109  142.0548  167.9305 C.3     1  UNL1        0.0672
     14 H         139.1353  139.1630  171.5976 H       1  UNL1        0.1452
     15 H         140.5774  139.9150  172.1101 H       1  UNL1        0.1452
     16 C         141.6767  142.1440  162.9093 C.ar    1  UNL1        0.1413
     17 C         141.7619  140.9267  162.0371 C.ar    1  UNL1        0.0603
     18 S         140.6070  140.9601  161.0805 S.2     1  UNL1       -0.0701
     19 C         139.8080  142.1982  161.3615 C.ar    1  UNL1        0.0888
     20 C         138.5660  142.6289  160.6391 C.3     1  UNL1        0.0594
     21 N         140.4692  142.9298  162.4918 N.ar    1  UNL1       -0.2381
     22 N         138.6166  139.7633  166.3688 N.pl3   1  UNL1       -0.3182
     23 H         138.2821  140.4565  165.7550 H       1  UNL1        0.1482
     24 C         138.1715  138.3400  166.2069 C.3     1  UNL1        0.0882
     25 C         138.7614  137.4886  165.1220 C.3     1  UNL1        0.0212
     26 C         141.2521  137.1500  164.4648 C.3     1  UNL1        0.0001
     27 C         139.9857  137.9502  164.3884 C.3     1  UNL1        0.0017
@<TRIPOS>BOND
     1    26    27    1
     2    27    25    1
     3    25    24    1
     4    24    22    1
     5    22     1    1
     6     1     2   ar
     7     2     3   ar
     8     3     4    1
     9     3     5   ar
    10     5     6   ar
    11     6     7   ar
    12     7     8    1
    13     8     9    1
    14     9    10   am
    15    10    11    2
    16    10    16    1
    17    16    17   ar
    18    17    18   ar
    19    18    19   ar
    20    19    20    1
    21    19    21   ar
    22     9    12    1
    23    12    13    1
    24     7     1   ar
    25    21    16   ar
    26    13     6    1
    27    22    23    1
    28     4    14    1
    29     4    15    1
@<TRIPOS>MOLECULE
*****
 27 29 0 0 0
SMALL
GASTEIGER

@<TRIPOS>ATOM
      1 C         141.6407  140.4966  167.4263 C.ar    1  UNL1        0.1301
      2 N         141.3385  140.7981  168.8643 N.ar    1  UNL1       -0.1995
      3 C         140.0164  140.4021  169.4518 C.ar    1  UNL1        0.2145
      4 N         139.7142  140.7036  170.8898 N.pl3   1  UNL1       -0.3274
      5 N         138.9965  139.7046  168.6014 N.ar    1  UNL1       -0.2185
      6 C         139.2987  139.4031  167.1634 C.ar    1  UNL1        0.0639
      7 C         140.6208  139.7991  166.5758 C.ar    1  UNL1        0.0429
      8 C         140.9230  139.4976  165.1379 C.3     1  UNL1        0.1244
      9 N         139.9031  138.8002  164.2875 N.am    1  UNL1       -0.2702
     10 C         140.2053  138.4986  162.8494 C.2     1  UNL1        0.2675
     11 O         139.1854  137.8012  161.9990 O.2     1  UNL1       -0.2682
     12 C         138.5810  138.4041  164.8750 C.3     1  UNL1        0.1004
     13 C         138.2788  138.7056  166.3129 C.3     1  UNL1        0.0672
     14 H         140.3836  141.1614  171.4480 H       1  UNL1        0.1452
     15 H         138.8465  140.4437  171.2755 H       1  UNL1        0.1452
     16 C         141.5274  138.8947  162.2619 C.ar    1  UNL1        0.1413
     17 C         142.7846  138.0768  162.2886 C.ar    1  UNL1        0.0603
     18 S         143.8586  138.8547  161.5877 S.2     1  UNL1       -0.0701
     19 C         143.2653  140.1534  161.1278 C.ar    1  UNL1        0.0888
     20 C         143.9861  141.2371  160.3822 C.3     1  UNL1        0.0594
     21 N         141.8245  140.1780  161.5445 N.ar    1  UNL1       -0.2381
     22 N         142.9629  140.8926  166.8388 N.pl3   1  UNL1       -0.3182
     23 H         143.6408  140.2057  166.6445 H       1  UNL1        0.1482
     24 C         143.2521  142.3353  166.5473 C.3     1  UNL1        0.0882
     25 C         143.8076  142.7340  165.2122 C.3     1  UNL1        0.0212
     26 C         145.7499  141.6871  163.8406 C.3     1  UNL1        0.0001
     27 C         144.3115  141.6848  164.2660 C.3     1  UNL1        0.0017
@<TRIPOS>BOND
     1    26    27    1
     2    27    25    1
     3    25    24    1
     4    24    22    1
     5    22     1    1
     6     1     2   ar
     7     2     3   ar
     8     3     4    1
     9     3     5   ar
    10     5     6   ar
    11     6     7   ar
    12     7     8    1
    13     8     9    1
    14     9    10   am
    15    10    11    2
    16    10    16    1
    17    16    17   ar
    18    17    18   ar
    19    18    19   ar
    20    19    20    1
    21    19    21   ar
    22     9    12    1
    23    12    13    1
    24     7     1   ar
    25    21    16   ar
    26    13     6    1
    27    22    23    1
    28     4    14    1
    29     4    15    1
@<TRIPOS>MOLECULE
*****
 27 29 0 0 0
SMALL
GASTEIGER

@<TRIPOS>ATOM
      1 C         139.7636  139.9310  166.3048 C.ar    1  UNL1        0.1301
      2 N         138.5790  139.4252  167.0734 N.ar    1  UNL1       -0.1995
      3 C         137.9812  138.0910  166.7379 C.ar    1  UNL1        0.2145
      4 N         136.7965  137.5853  167.5066 N.pl3   1  UNL1       -0.3274
      5 N         138.5680  137.2626  165.6337 N.ar    1  UNL1       -0.2185
      6 C         139.7527  137.7684  164.8650 C.ar    1  UNL1        0.0639
      7 C         140.3505  139.1025  165.2005 C.ar    1  UNL1        0.0429
      8 C         141.5351  139.6083  164.4319 C.3     1  UNL1        0.1244
      9 N         142.1219  138.7799  163.3277 N.am    1  UNL1       -0.2702
     10 C         143.3066  139.2856  162.5590 C.2     1  UNL1        0.2675
     11 O         143.8934  138.4572  161.4548 O.2     1  UNL1       -0.2682
     12 C         141.5241  137.4457  162.9921 C.3     1  UNL1        0.1004
     13 C         140.3395  136.9399  163.7608 C.3     1  UNL1        0.0672
     14 H         136.4114  138.1290  168.2313 H       1  UNL1        0.1452
     15 H         136.4042  136.7096  167.2864 H       1  UNL1        0.1452
     16 C         143.9044  140.6198  162.8945 C.ar    1  UNL1        0.1413
     17 C         145.1188  140.8535  163.7434 C.ar    1  UNL1        0.0603
     18 S         145.3577  142.3327  163.8136 S.2     1  UNL1       -0.0701
     19 C         144.2909  143.0132  163.0082 C.ar    1  UNL1        0.0888
     20 C         144.1474  144.4926  162.8062 C.3     1  UNL1        0.0594
     21 N         143.3927  141.9546  162.4402 N.ar    1  UNL1       -0.2381
     22 N         140.3614  141.2652  166.6404 N.pl3   1  UNL1       -0.3182
     23 H         141.0653  141.3309  167.3255 H       1  UNL1        0.1482
     24 C         139.8866  142.4992  165.9321 C.3     1  UNL1        0.0882
     25 C         138.8720  142.3896  164.8328 C.3     1  UNL1        0.0212
     26 C         137.7538  144.0638  163.1907 C.3     1  UNL1        0.0001
     27 C         137.9171  143.5180  164.5783 C.3     1  UNL1        0.0017
@<TRIPOS>BOND
     1    26    27    1
     2    27    25    1
     3    25    24    1
     4    24    22    1
     5    22     1    1
     6     1     2   ar
     7     2     3   ar
     8     3     4    1
     9     3     5   ar
    10     5     6   ar
    11     6     7   ar
    12     7     8    1
    13     8     9    1
    14     9    10   am
    15    10    11    2
    16    10    16    1
    17    16    17   ar
    18    17    18   ar
    19    18    19   ar
    20    19    20    1
    21    19    21   ar
    22     9    12    1
    23    12    13    1
    24     7     1   ar
    25    21    16   ar
    26    13     6    1
    27    22    23    1
    28     4    14    1
    29     4    15    1
@<TRIPOS>MOLECULE
*****
 27 29 0 0 0
SMALL
GASTEIGER

@<TRIPOS>ATOM
      1 C         139.6823  139.9606  166.3927 C.ar    1  UNL1        0.1301
      2 N         138.5035  139.4041  167.1347 N.ar    1  UNL1       -0.1995
      3 C         137.9543  138.0573  166.7682 C.ar    1  UNL1        0.2145
      4 N         136.7753  137.5008  167.5102 N.pl3   1  UNL1       -0.3274
      5 N         138.5839  137.2669  165.6597 N.ar    1  UNL1       -0.2185
      6 C         139.7628  137.8233  164.9176 C.ar    1  UNL1        0.0639
      7 C         140.3120  139.1702  165.2841 C.ar    1  UNL1        0.0429
      8 C         141.4909  139.7267  164.5421 C.3     1  UNL1        0.1244
      9 N         142.1205  138.9363  163.4336 N.am    1  UNL1       -0.2702
     10 C         143.2994  139.4927  162.6915 C.2     1  UNL1        0.2675
     11 O         143.9290  138.7023  161.5830 O.2     1  UNL1       -0.2682
     12 C         141.5713  137.5894  163.0671 C.3     1  UNL1        0.1004
     13 C         140.3924  137.0330  163.8091 C.3     1  UNL1        0.0672
     14 H         136.3621  138.0196  168.2378 H       1  UNL1        0.1452
     15 H         136.4148  136.6168  167.2697 H       1  UNL1        0.1452
     16 C         143.8487  140.8396  163.0580 C.ar    1  UNL1        0.1413
     17 C         145.0398  141.0979  163.9323 C.ar    1  UNL1        0.0603
     18 S         145.2305  142.5826  164.0292 S.2     1  UNL1       -0.0701
     19 C         144.1572  143.2419  163.2148 C.ar    1  UNL1        0.0888
     20 C         143.9706  144.7190  163.0326 C.3     1  UNL1        0.0594
     21 N         143.3032  142.1646  162.6146 N.ar    1  UNL1       -0.2381
     22 N         140.2316  141.3075  166.7592 N.pl3   1  UNL1       -0.3182
     23 H         140.1667  142.0554  166.1223 H       1  UNL1        0.1482
     24 C         140.8797  141.5147  168.0959 C.3     1  UNL1        0.0882
     25 C         140.3867  142.5981  169.0086 C.3     1  UNL1        0.0212
     26 C         142.7507  142.8170  170.0639 C.3     1  UNL1        0.0001
     27 C         141.3518  143.3307  169.8930 C.3     1  UNL1        0.0017
@<TRIPOS>BOND
     1    26    27    1
     2    27    25    1
     3    25    24    1
     4    24    22    1
     5    22     1    1
     6     1     2   ar
     7     2     3   ar
     8     3     4    1
     9     3     5   ar
    10     5     6   ar
    11     6     7   ar
    12     7     8    1
    13     8     9    1
    14     9    10   am
    15    10    11    2
    16    10    16    1
    17    16    17   ar
    18    17    18   ar
    19    18    19   ar
    20    19    20    1
    21    19    21   ar
    22     9    12    1
    23    12    13    1
    24     7     1   ar
    25    21    16   ar
    26    13     6    1
    27    22    23    1
    28     4    14    1
    29     4    15    1
@<TRIPOS>MOLECULE
*****
 27 29 0 0 0
SMALL
GASTEIGER

@<TRIPOS>ATOM
      1 C         140.5534  141.4051  167.2857 C.ar    1  UNL1        0.1301
      2 N         140.1388  141.2672  168.7207 N.ar    1  UNL1       -0.1995
      3 C         139.1594  140.2034  169.1195 C.ar    1  UNL1        0.2145
      4 N         138.7449  140.0655  170.5545 N.pl3   1  UNL1       -0.3274
      5 N         138.5945  139.2775  168.0834 N.ar    1  UNL1       -0.2185
      6 C         139.0090  139.4154  166.6484 C.ar    1  UNL1        0.0639
      7 C         139.9885  140.4792  166.2495 C.ar    1  UNL1        0.0429
      8 C         140.4030  140.6171  164.8146 C.3     1  UNL1        0.1244
      9 N         139.8381  139.6912  163.7785 N.am    1  UNL1       -0.2702
     10 C         140.2526  139.8291  162.3435 C.2     1  UNL1        0.2675
     11 O         139.6878  138.9032  161.3073 O.2     1  UNL1       -0.2682
     12 C         138.8587  138.6274  164.1773 C.3     1  UNL1        0.1004
     13 C         138.4441  138.4895  165.6122 C.3     1  UNL1        0.0672
     14 H         139.1156  140.6732  171.2346 H       1  UNL1        0.1452
     15 H         138.1020  139.3673  170.8163 H       1  UNL1        0.1452
     16 C         141.2321  140.8929  161.9446 C.ar    1  UNL1        0.1413
     17 C         140.8898  142.2378  161.3754 C.ar    1  UNL1        0.0603
     18 S         142.1720  142.9747  161.1240 S.2     1  UNL1       -0.0701
     19 C         143.3066  142.0851  161.5378 C.ar    1  UNL1        0.0888
     20 C         144.7660  142.4229  161.4584 C.3     1  UNL1        0.0594
     21 N         142.7257  140.7985  162.0450 N.ar    1  UNL1       -0.2381
     22 N         141.5328  142.4689  166.8869 N.pl3   1  UNL1       -0.3182
     23 H         141.2132  143.3718  166.6592 H       1  UNL1        0.1482
     24 C         142.9991  142.1570  166.8350 C.3     1  UNL1        0.0882
     25 C         143.7526  142.3068  165.5467 C.3     1  UNL1        0.0212
     26 C         143.8623  144.5973  164.3253 C.3     1  UNL1        0.0001
     27 C         144.4773  143.5853  165.2460 C.3     1  UNL1        0.0017
@<TRIPOS>BOND
     1    26    27    1
     2    27    25    1
     3    25    24    1
     4    24    22    1
     5    22     1    1
     6     1     2   ar
     7     2     3   ar
     8     3     4    1
     9     3     5   ar
    10     5     6   ar
    11     6     7   ar
    12     7     8    1
    13     8     9    1
    14     9    10   am
    15    10    11    2
    16    10    16    1
    17    16    17   ar
    18    17    18   ar
    19    18    19   ar
    20    19    20    1
    21    19    21   ar
    22     9    12    1
    23    12    13    1
    24     7     1   ar
    25    21    16   ar
    26    13     6    1
    27    22    23    1
    28     4    14    1
    29     4    15    1
@<TRIPOS>MOLECULE
*****
 27 29 0 0 0
SMALL
GASTEIGER

@<TRIPOS>ATOM
      1 C         138.5725  140.6533  164.1956 C.ar    1  UNL1        0.1301
      2 N         137.6467  140.5085  163.0244 N.ar    1  UNL1       -0.1995
      3 C         137.8682  139.4128  162.0243 C.ar    1  UNL1        0.2145
      4 N         136.9423  139.2679  160.8530 N.pl3   1  UNL1       -0.3274
      5 N         139.0156  138.4619  162.1953 N.ar    1  UNL1       -0.2185
      6 C         139.9415  138.6067  163.3666 C.ar    1  UNL1        0.0639
      7 C         139.7200  139.7024  164.3667 C.ar    1  UNL1        0.0429
      8 C         140.6458  139.8473  165.5379 C.3     1  UNL1        0.1244
      9 N         141.7932  138.8964  165.7090 N.am    1  UNL1       -0.2702
     10 C         142.7191  139.0412  166.8802 C.2     1  UNL1        0.2675
     11 O         143.8665  138.0903  167.0513 O.2     1  UNL1       -0.2682
     12 C         142.0147  137.8007  164.7088 C.3     1  UNL1        0.1004
     13 C         141.0889  137.6558  163.5376 C.3     1  UNL1        0.0672
     14 H         136.1892  139.8921  160.7407 H       1  UNL1        0.1452
     15 H         137.0877  138.5488  160.1966 H       1  UNL1        0.1452
     16 C         142.4976  140.1369  167.8804 C.ar    1  UNL1        0.1413
     17 C         142.9524  141.5598  167.7446 C.ar    1  UNL1        0.0603
     18 S         142.5183  142.3044  168.9722 S.2     1  UNL1       -0.0701
     19 C         141.7952  141.3417  169.8668 C.ar    1  UNL1        0.0888
     20 C         141.1909  141.6623  171.2017 C.3     1  UNL1        0.0594
     21 N         141.7824  140.0021  169.1920 N.ar    1  UNL1       -0.2381
     22 N         138.3510  141.7490  165.1958 N.pl3   1  UNL1       -0.3182
     23 H         137.8054  141.5805  165.9978 H       1  UNL1        0.1482
     24 C         138.9607  143.1015  164.9740 C.3     1  UNL1        0.0882
     25 C         138.1281  144.2170  164.4150 C.3     1  UNL1        0.0212
     26 C         139.2950  145.3760  162.4038 C.3     1  UNL1        0.0001
     27 C         138.1820  144.5312  162.9493 C.3     1  UNL1        0.0017
@<TRIPOS>BOND
     1    26    27    1
     2    27    25    1
     3    25    24    1
     4    24    22    1
     5    22     1    1
     6     1     2   ar
     7     2     3   ar
     8     3     4    1
     9     3     5   ar
    10     5     6   ar
    11     6     7   ar
    12     7     8    1
    13     8     9    1
    14     9    10   am
    15    10    11    2
    16    10    16    1
    17    16    17   ar
    18    17    18   ar
    19    18    19   ar
    20    19    20    1
    21    19    21   ar
    22     9    12    1
    23    12    13    1
    24     7     1   ar
    25    21    16   ar
    26    13     6    1
    27    22    23    1
    28     4    14    1
    29     4    15    1
