@<TRIPOS>MOLECULE
*****
 25 27 0 0 0
SMALL
GASTEIGER

@<TRIPOS>ATOM
      1 N         138.0546  140.2220  163.8709 N.ar    1  UNL1       -0.2244
      2 C         138.0064  141.6982  164.1320 C.ar    1  UNL1        0.1329
      3 C         137.6701  142.3863  162.8423 C.ar    1  UNL1        0.1709
      4 N         137.5105  141.3353  161.7840 N.ar    1  UNL1       -0.1138
      5 N         137.7481  139.9976  162.4198 N.ar    1  UNL1       -0.0622
      6 N         137.5199  143.8657  162.6452 N.pl3   1  UNL1       -0.3142
      7 H         136.6453  144.2428  162.3958 H       1  UNL1        0.1483
      8 C         138.7022  144.7706  162.8283 C.3     1  UNL1        0.1058
      9 C         139.3464  144.8994  164.1768 C.3     1  UNL1        0.0936
     10 N         140.7686  144.4651  164.3731 N.3     1  UNL1       -0.2712
     11 C         140.9748  143.3212  165.3213 C.3     1  UNL1        0.0721
     12 C         142.2600  142.6617  165.7259 C.3     1  UNL1        0.0173
     13 C         143.6562  142.9833  165.2822 C.3     1  UNL1        0.0015
     14 C         144.1123  144.0438  164.3243 C.3     1  UNL1        0.0015
     15 C         143.2847  145.0445  163.5736 C.3     1  UNL1        0.0173
     16 C         141.7966  145.2319  163.5953 C.3     1  UNL1        0.0721
     17 C         138.3563  139.1569  164.8832 C.3     1  UNL1        0.1557
     18 CL        142.7801  139.9612  168.8560 Cl      1  UNL1       -0.0814
     19 C         141.6741  139.7602  167.8629 C.ar    1  UNL1        0.0682
     20 C         140.2628  140.1106  168.2307 C.ar    1  UNL1        0.0120
     21 C         139.1568  139.9095  167.2375 C.ar    1  UNL1       -0.0014
     22 C         139.4623  139.3580  165.8764 C.ar    1  UNL1        0.0031
     23 C         140.8736  139.0076  165.5085 C.ar    1  UNL1        0.0099
     24 C         141.9795  139.2086  166.5017 C.ar    1  UNL1        0.0679
     25 CL        143.3908  138.8582  166.1339 Cl      1  UNL1       -0.0814
@<TRIPOS>BOND
     1    18    19    1
     2    19    20   ar
     3    20    21   ar
     4    21    22   ar
     5    22    17    1
     6    17     1    1
     7     1     2   ar
     8     2     3   ar
     9     3     6    1
    10     6     8    1
    11     8     9    1
    12     9    10    1
    13    10    11    1
    14    11    12    1
    15    12    13    1
    16    13    14    1
    17    14    15    1
    18    15    16    1
    19     3     4   ar
    20     4     5   ar
    21    22    23   ar
    22    23    24   ar
    23    24    25    1
    24    24    19   ar
    25     5     1   ar
    26    16    10    1
    27     6     7    1
@<TRIPOS>MOLECULE
*****
 25 27 0 0 0
SMALL
GASTEIGER

@<TRIPOS>ATOM
      1 N         138.8798  144.0620  162.5337 N.ar    1  UNL1       -0.2244
      2 C         140.3336  143.6928  162.5284 C.ar    1  UNL1        0.1329
      3 C         141.1081  144.8673  162.0081 C.ar    1  UNL1        0.1709
      4 N         140.1329  145.9623  161.6918 N.ar    1  UNL1       -0.1138
      5 N         138.7557  145.4645  162.0166 N.ar    1  UNL1       -0.0622
      6 N         142.5965  144.9349  161.8345 N.pl3   1  UNL1       -0.3142
      7 H         142.9794  145.1942  160.9654 H       1  UNL1        0.1483
      8 C         143.5014  144.6076  162.9853 C.3     1  UNL1        0.1058
      9 C         144.4122  143.4183  162.9083 C.3     1  UNL1        0.0936
     10 N         144.1063  142.1863  163.7074 N.3     1  UNL1       -0.2712
     11 C         142.9357  142.2895  164.6398 C.3     1  UNL1        0.0721
     12 C         142.3811  141.2458  165.5636 C.3     1  UNL1        0.0173
     13 C         142.8599  139.8415  165.7830 C.3     1  UNL1        0.0015
     14 C         144.0117  139.1337  165.1330 C.3     1  UNL1        0.0015
     15 C         144.9691  139.6556  164.1030 C.3     1  UNL1        0.0173
     16 C         145.0111  141.0142  163.4685 C.3     1  UNL1        0.0721
     17 C         137.7485  143.1828  162.9780 C.3     1  UNL1        0.1557
     18 CL        138.8639  137.6302  164.9590 Cl      1  UNL1       -0.0814
     19 C         138.5850  139.0183  164.4638 C.ar    1  UNL1        0.0682
     20 C         138.6600  140.1809  165.4086 C.ar    1  UNL1        0.0120
     21 C         138.3812  141.5691  164.9134 C.ar    1  UNL1       -0.0014
     22 C         138.0273  141.7946  163.4733 C.ar    1  UNL1        0.0031
     23 C         137.9523  140.6320  162.5284 C.ar    1  UNL1        0.0099
     24 C         138.2312  139.2439  163.0236 C.ar    1  UNL1        0.0679
     25 CL        138.1562  138.0813  162.0788 Cl      1  UNL1       -0.0814
@<TRIPOS>BOND
     1    18    19    1
     2    19    20   ar
     3    20    21   ar
     4    21    22   ar
     5    22    17    1
     6    17     1    1
     7     1     2   ar
     8     2     3   ar
     9     3     6    1
    10     6     8    1
    11     8     9    1
    12     9    10    1
    13    10    11    1
    14    11    12    1
    15    12    13    1
    16    13    14    1
    17    14    15    1
    18    15    16    1
    19     3     4   ar
    20     4     5   ar
    21    22    23   ar
    22    23    24   ar
    23    24    25    1
    24    24    19   ar
    25     5     1   ar
    26    16    10    1
    27     6     7    1
@<TRIPOS>MOLECULE
*****
 25 27 0 0 0
SMALL
GASTEIGER

@<TRIPOS>ATOM
      1 N         138.0158  140.6936  164.2303 N.ar    1  UNL1       -0.2244
      2 C         138.1028  142.1866  164.3453 C.ar    1  UNL1        0.1329
      3 C         137.6888  142.7777  163.0303 C.ar    1  UNL1        0.1709
      4 N         137.3459  141.6500  162.1026 N.ar    1  UNL1       -0.1138
      5 N         137.5480  140.3619  162.8443 N.ar    1  UNL1       -0.0622
      6 N         137.6283  144.2398  162.7008 N.pl3   1  UNL1       -0.3142
      7 H         136.7697  144.6537  162.4542 H       1  UNL1        0.1483
      8 C         138.8760  145.0713  162.7470 C.3     1  UNL1        0.1058
      9 C         140.1194  144.5970  162.0550 C.3     1  UNL1        0.0936
     10 N         141.2837  144.1020  162.8608 N.3     1  UNL1       -0.2712
     11 C         142.2470  145.1535  163.3262 C.3     1  UNL1        0.0721
     12 C         143.4954  144.9837  164.1404 C.3     1  UNL1        0.0173
     13 C         144.0887  143.7205  164.6901 C.3     1  UNL1        0.0015
     14 C         143.5804  142.3151  164.5615 C.3     1  UNL1        0.0015
     15 C         142.3531  141.8259  163.8514 C.3     1  UNL1        0.0173
     16 C         141.3310  142.6212  163.0945 C.3     1  UNL1        0.0721
     17 C         138.3397  139.7056  165.3115 C.3     1  UNL1        0.1557
     18 CL        144.0441  138.1712  166.3624 Cl      1  UNL1       -0.0814
     19 C         142.6181  138.5547  166.0997 C.ar    1  UNL1        0.0682
     20 C         141.8476  137.8749  165.0069 C.ar    1  UNL1        0.0120
     21 C         140.4215  138.2585  164.7441 C.ar    1  UNL1       -0.0014
     22 C         139.7658  139.3220  165.5743 C.ar    1  UNL1        0.0031
     23 C         140.5362  140.0019  166.6671 C.ar    1  UNL1        0.0099
     24 C         141.9623  139.6183  166.9298 C.ar    1  UNL1        0.0679
     25 CL        142.7328  140.2981  168.0225 Cl      1  UNL1       -0.0814
@<TRIPOS>BOND
     1    18    19    1
     2    19    20   ar
     3    20    21   ar
     4    21    22   ar
     5    22    17    1
     6    17     1    1
     7     1     2   ar
     8     2     3   ar
     9     3     6    1
    10     6     8    1
    11     8     9    1
    12     9    10    1
    13    10    11    1
    14    11    12    1
    15    12    13    1
    16    13    14    1
    17    14    15    1
    18    15    16    1
    19     3     4   ar
    20     4     5   ar
    21    22    23   ar
    22    23    24   ar
    23    24    25    1
    24    24    19   ar
    25     5     1   ar
    26    16    10    1
    27     6     7    1
@<TRIPOS>MOLECULE
*****
 25 27 0 0 0
SMALL
GASTEIGER

@<TRIPOS>ATOM
      1 N         138.9208  144.1127  162.5970 N.ar    1  UNL1       -0.2244
      2 C         140.3791  143.7627  162.6267 C.ar    1  UNL1        0.1329
      3 C         141.1465  144.9264  162.0726 C.ar    1  UNL1        0.1709
      4 N         140.1624  145.9956  161.7005 N.ar    1  UNL1       -0.1138
      5 N         138.7869  145.4927  162.0246 N.ar    1  UNL1       -0.0622
      6 N         142.6363  145.0068  161.9178 N.pl3   1  UNL1       -0.3142
      7 H         143.0270  145.3127  161.0676 H       1  UNL1        0.1483
      8 C         143.5308  144.6210  163.0586 C.3     1  UNL1        0.1058
      9 C         144.4202  143.4190  162.9409 C.3     1  UNL1        0.0936
     10 N         144.1141  142.1795  163.7283 N.3     1  UNL1       -0.2712
     11 C         145.0238  141.0121  163.4839 C.3     1  UNL1        0.0721
     12 C         144.9829  139.6481  164.1069 C.3     1  UNL1        0.0173
     13 C         144.0223  139.1148  165.1279 C.3     1  UNL1        0.0015
     14 C         142.8652  139.8135  165.7783 C.3     1  UNL1        0.0015
     15 C         142.3831  141.2183  165.5682 C.3     1  UNL1        0.0173
     16 C         142.9389  142.2712  164.6558 C.3     1  UNL1        0.0721
     17 C         137.7942  143.2366  163.0587 C.3     1  UNL1        0.1557
     18 CL        138.9099  137.6357  164.8986 Cl      1  UNL1       -0.0814
     19 C         138.6310  139.0358  164.4386 C.ar    1  UNL1        0.0682
     20 C         138.2318  139.2923  163.0157 C.ar    1  UNL1        0.0120
     21 C         137.9529  140.6926  162.5556 C.ar    1  UNL1       -0.0014
     22 C         138.0731  141.8363  163.5187 C.ar    1  UNL1        0.0031
     23 C         138.4723  141.5798  164.9417 C.ar    1  UNL1        0.0099
     24 C         138.7512  140.1796  165.4017 C.ar    1  UNL1        0.0679
     25 CL        139.1503  139.9231  166.8246 Cl      1  UNL1       -0.0814
@<TRIPOS>BOND
     1    18    19    1
     2    19    20   ar
     3    20    21   ar
     4    21    22   ar
     5    22    17    1
     6    17     1    1
     7     1     2   ar
     8     2     3   ar
     9     3     6    1
    10     6     8    1
    11     8     9    1
    12     9    10    1
    13    10    11    1
    14    11    12    1
    15    12    13    1
    16    13    14    1
    17    14    15    1
    18    15    16    1
    19     3     4   ar
    20     4     5   ar
    21    22    23   ar
    22    23    24   ar
    23    24    25    1
    24    24    19   ar
    25     5     1   ar
    26    16    10    1
    27     6     7    1
@<TRIPOS>MOLECULE
*****
 25 27 0 0 0
SMALL
GASTEIGER

@<TRIPOS>ATOM
      1 N         138.6687  138.7378  164.5628 N.ar    1  UNL1       -0.2244
      2 C         138.0953  139.8701  163.7635 C.ar    1  UNL1        0.1329
      3 C         137.9302  139.4013  162.3482 C.ar    1  UNL1        0.1709
      4 N         138.4016  137.9792  162.2729 N.ar    1  UNL1       -0.1138
      5 N         138.8581  137.5692  163.6417 N.ar    1  UNL1       -0.0622
      6 N         137.3888  140.2120  161.2082 N.pl3   1  UNL1       -0.3142
      7 H         136.4422  140.1285  160.9507 H       1  UNL1        0.1483
      8 C         138.2896  141.1501  160.4607 C.3     1  UNL1        0.1058
      9 C         138.3425  142.6005  160.8396 C.3     1  UNL1        0.0936
     10 N         138.8155  143.0021  162.2052 N.3     1  UNL1       -0.2712
     11 C         140.2519  142.6974  162.5122 C.3     1  UNL1        0.0721
     12 C         141.0171  142.9707  163.7731 C.3     1  UNL1        0.0173
     13 C         140.5350  143.6161  165.0383 C.3     1  UNL1        0.0015
     14 C         139.1686  144.1477  165.3553 C.3     1  UNL1        0.0015
     15 C         137.9469  144.1651  164.4852 C.3     1  UNL1        0.0173
     16 C         137.7898  143.6553  163.0833 C.3     1  UNL1        0.0721
     17 C         138.9955  138.7686  166.0265 C.3     1  UNL1        0.1557
     18 CL        143.3037  142.4149  168.0623 Cl      1  UNL1       -0.0814
     19 C         142.2267  141.5033  167.5533 C.ar    1  UNL1        0.0682
     20 C         142.5659  140.4086  166.5857 C.ar    1  UNL1        0.0120
     21 C         141.4889  139.4969  166.0767 C.ar    1  UNL1       -0.0014
     22 C         140.0726  139.6802  166.5355 C.ar    1  UNL1        0.0031
     23 C         139.7332  140.7750  167.5031 C.ar    1  UNL1        0.0099
     24 C         140.8103  141.6865  168.0121 C.ar    1  UNL1        0.0679
     25 CL        140.4711  142.7813  168.9797 Cl      1  UNL1       -0.0814
@<TRIPOS>BOND
     1    18    19    1
     2    19    20   ar
     3    20    21   ar
     4    21    22   ar
     5    22    17    1
     6    17     1    1
     7     1     2   ar
     8     2     3   ar
     9     3     6    1
    10     6     8    1
    11     8     9    1
    12     9    10    1
    13    10    11    1
    14    11    12    1
    15    12    13    1
    16    13    14    1
    17    14    15    1
    18    15    16    1
    19     3     4   ar
    20     4     5   ar
    21    22    23   ar
    22    23    24   ar
    23    24    25    1
    24    24    19   ar
    25     5     1   ar
    26    16    10    1
    27     6     7    1
@<TRIPOS>MOLECULE
*****
 25 27 0 0 0
SMALL
GASTEIGER

@<TRIPOS>ATOM
      1 N         142.5228  142.4926  163.9131 N.ar    1  UNL1       -0.2244
      2 C         142.3133  142.7895  162.4578 C.ar    1  UNL1        0.1329
      3 C         142.3068  144.2795  162.2850 C.ar    1  UNL1        0.1709
      4 N         142.5124  144.9034  163.6335 N.ar    1  UNL1       -0.1138
      5 N         142.6459  143.7990  164.6398 N.ar    1  UNL1       -0.0622
      6 N         142.1264  145.0163  160.9910 N.pl3   1  UNL1       -0.3142
      7 H         142.9110  145.2508  160.4445 H       1  UNL1        0.1483
      8 C         140.7504  145.3957  160.5294 C.3     1  UNL1        0.1058
      9 C         139.6712  145.6697  161.5345 C.3     1  UNL1        0.0936
     10 N         139.0258  144.5331  162.2706 N.3     1  UNL1       -0.2712
     11 C         138.6110  143.3638  161.4275 C.3     1  UNL1        0.0721
     12 C         137.9484  142.0887  161.8581 C.3     1  UNL1        0.0173
     13 C         137.5372  141.6681  163.2378 C.3     1  UNL1        0.0015
     14 C         137.6868  142.4186  164.5280 C.3     1  UNL1        0.0015
     15 C         138.2847  143.7751  164.7569 C.3     1  UNL1        0.0173
     16 C         138.8807  144.7161  163.7522 C.3     1  UNL1        0.0721
     17 C         142.5965  141.1286  164.5329 C.3     1  UNL1        0.1557
     18 CL        137.6847  138.6544  166.9315 Cl      1  UNL1       -0.0814
     19 C         138.9126  139.2729  166.3318 C.ar    1  UNL1        0.0682
     20 C         139.2664  139.0011  164.8998 C.ar    1  UNL1        0.0120
     21 C         140.4943  139.6196  164.3001 C.ar    1  UNL1       -0.0014
     22 C         141.3685  140.5100  165.1326 C.ar    1  UNL1        0.0031
     23 C         141.0147  140.7819  166.5647 C.ar    1  UNL1        0.0099
     24 C         139.7868  140.1634  167.1643 C.ar    1  UNL1        0.0679
     25 CL        139.4330  140.4352  168.5964 Cl      1  UNL1       -0.0814
@<TRIPOS>BOND
     1    18    19    1
     2    19    20   ar
     3    20    21   ar
     4    21    22   ar
     5    22    17    1
     6    17     1    1
     7     1     2   ar
     8     2     3   ar
     9     3     6    1
    10     6     8    1
    11     8     9    1
    12     9    10    1
    13    10    11    1
    14    11    12    1
    15    12    13    1
    16    13    14    1
    17    14    15    1
    18    15    16    1
    19     3     4   ar
    20     4     5   ar
    21    22    23   ar
    22    23    24   ar
    23    24    25    1
    24    24    19   ar
    25     5     1   ar
    26    16    10    1
    27     6     7    1
@<TRIPOS>MOLECULE
*****
 25 27 0 0 0
SMALL
GASTEIGER

@<TRIPOS>ATOM
      1 N         139.9138  144.3531  162.2635 N.ar    1  UNL1       -0.2244
      2 C         139.5020  142.9827  162.7135 C.ar    1  UNL1        0.1329
      3 C         138.0350  143.0183  163.0245 C.ar    1  UNL1        0.1709
      4 N         137.5402  144.4107  162.7667 N.ar    1  UNL1       -0.1138
      5 N         138.7014  145.2356  162.2963 N.ar    1  UNL1       -0.0622
      6 N         137.2080  141.8643  163.5083 N.pl3   1  UNL1       -0.3142
      7 H         136.2579  141.9978  163.7289 H       1  UNL1        0.1483
      8 C         137.8287  140.5066  163.6561 C.3     1  UNL1        0.1058
      9 C         138.2487  140.0174  165.0105 C.3     1  UNL1        0.0936
     10 N         139.6589  140.2233  165.4782 N.3     1  UNL1       -0.2712
     11 C         140.7271  139.9706  164.4557 C.3     1  UNL1        0.0721
     12 C         142.2147  140.0868  164.6091 C.3     1  UNL1        0.0173
     13 C         143.0015  140.4844  165.8226 C.3     1  UNL1        0.0015
     14 C         142.4952  140.8640  167.1826 C.3     1  UNL1        0.0015
     15 C         141.0769  140.9397  167.6649 C.3     1  UNL1        0.0173
     16 C         139.8146  140.6546  166.9063 C.3     1  UNL1        0.0721
     17 C         141.2955  144.7680  161.8528 C.3     1  UNL1        0.1557
     18 CL        146.0580  141.6803  163.7983 Cl      1  UNL1       -0.0814
     19 C         144.8674  142.4521  163.3119 C.ar    1  UNL1        0.0682
     20 C         144.3331  142.2151  161.9305 C.ar    1  UNL1        0.0120
     21 C         143.1425  142.9870  161.4440 C.ar    1  UNL1       -0.0014
     22 C         142.4862  143.9961  162.3391 C.ar    1  UNL1        0.0031
     23 C         143.0205  144.2332  163.7206 C.ar    1  UNL1        0.0099
     24 C         144.2110  143.4612  164.2069 C.ar    1  UNL1        0.0679
     25 CL        144.7453  143.6983  165.5883 Cl      1  UNL1       -0.0814
@<TRIPOS>BOND
     1    18    19    1
     2    19    20   ar
     3    20    21   ar
     4    21    22   ar
     5    22    17    1
     6    17     1    1
     7     1     2   ar
     8     2     3   ar
     9     3     6    1
    10     6     8    1
    11     8     9    1
    12     9    10    1
    13    10    11    1
    14    11    12    1
    15    12    13    1
    16    13    14    1
    17    14    15    1
    18    15    16    1
    19     3     4   ar
    20     4     5   ar
    21    22    23   ar
    22    23    24   ar
    23    24    25    1
    24    24    19   ar
    25     5     1   ar
    26    16    10    1
    27     6     7    1
@<TRIPOS>MOLECULE
*****
 25 27 0 0 0
SMALL
GASTEIGER

@<TRIPOS>ATOM
      1 N         139.3521  138.8124  162.7025 N.ar    1  UNL1       -0.2244
      2 C         140.4898  138.8790  161.7273 C.ar    1  UNL1        0.1329
      3 C         141.4310  137.7524  162.0355 C.ar    1  UNL1        0.1709
      4 N         140.8749  136.9895  163.2012 N.ar    1  UNL1       -0.1138
      5 N         139.5900  137.6447  163.6134 N.ar    1  UNL1       -0.0622
      6 N         142.7047  137.4429  161.3062 N.pl3   1  UNL1       -0.3142
      7 H         142.7086  136.7727  160.5851 H       1  UNL1        0.1483
      8 C         143.9724  138.1548  161.6755 C.3     1  UNL1        0.1058
      9 C         144.1496  139.6021  161.3237 C.3     1  UNL1        0.0936
     10 N         144.0842  140.6482  162.3968 N.3     1  UNL1       -0.2712
     11 C         143.6669  140.1634  163.7536 C.3     1  UNL1        0.0721
     12 C         143.5071  140.9515  165.0200 C.3     1  UNL1        0.0173
     13 C         143.7251  142.4188  165.2421 C.3     1  UNL1        0.0015
     14 C         144.1567  143.4606  164.2530 C.3     1  UNL1        0.0015
     15 C         144.4770  143.2923  162.7972 C.3     1  UNL1        0.0173
     16 C         144.4447  142.0406  161.9712 C.3     1  UNL1        0.0721
     17 C         138.1817  139.7491  162.7572 C.3     1  UNL1        0.1557
     18 CL        138.7003  145.0383  165.5420 Cl      1  UNL1       -0.0814
     19 C         138.5706  143.7161  164.8458 C.ar    1  UNL1        0.0682
     20 C         137.6590  143.5775  163.6627 C.ar    1  UNL1        0.0120
     21 C         137.5293  142.2552  162.9664 C.ar    1  UNL1       -0.0014
     22 C         138.3114  141.0714  163.4534 C.ar    1  UNL1        0.0031
     23 C         139.2230  141.2099  164.6365 C.ar    1  UNL1        0.0099
     24 C         139.3527  142.5322  165.3327 C.ar    1  UNL1        0.0679
     25 CL        140.2643  142.6707  166.5157 Cl      1  UNL1       -0.0814
@<TRIPOS>BOND
     1    18    19    1
     2    19    20   ar
     3    20    21   ar
     4    21    22   ar
     5    22    17    1
     6    17     1    1
     7     1     2   ar
     8     2     3   ar
     9     3     6    1
    10     6     8    1
    11     8     9    1
    12     9    10    1
    13    10    11    1
    14    11    12    1
    15    12    13    1
    16    13    14    1
    17    14    15    1
    18    15    16    1
    19     3     4   ar
    20     4     5   ar
    21    22    23   ar
    22    23    24   ar
    23    24    25    1
    24    24    19   ar
    25     5     1   ar
    26    16    10    1
    27     6     7    1
@<TRIPOS>MOLECULE
*****
 25 27 0 0 0
SMALL
GASTEIGER

@<TRIPOS>ATOM
      1 N         141.5079  143.9522  163.6494 N.ar    1  UNL1       -0.2244
      2 C         142.4796  142.8824  163.2477 C.ar    1  UNL1        0.1329
      3 C         143.8279  143.5189  163.0834 C.ar    1  UNL1        0.1709
      4 N         143.6895  144.9820  163.3836 N.ar    1  UNL1       -0.1138
      5 N         142.2556  145.2498  163.7334 N.ar    1  UNL1       -0.0622
      6 N         145.0926  142.8158  162.6883 N.pl3   1  UNL1       -0.3142
      7 H         145.9332  143.3220  162.6093 H       1  UNL1        0.1483
      8 C         145.0765  141.3412  162.4136 C.3     1  UNL1        0.1058
      9 C         145.0153  140.3667  163.5523 C.3     1  UNL1        0.0936
     10 N         143.8336  139.4541  163.6958 N.3     1  UNL1       -0.2712
     11 C         143.3326  139.2533  165.0954 C.3     1  UNL1        0.0721
     12 C         142.1833  138.4117  165.5656 C.3     1  UNL1        0.0173
     13 C         141.2514  137.5632  164.7525 C.3     1  UNL1        0.0015
     14 C         141.2383  137.3465  163.2683 C.3     1  UNL1        0.0015
     15 C         142.1541  137.9249  162.2306 C.3     1  UNL1        0.0173
     16 C         143.3091  138.8629  162.4210 C.3     1  UNL1        0.0721
     17 C         140.0452  143.7584  163.9197 C.3     1  UNL1        0.1557
     18 CL        138.1086  138.6686  166.4382 Cl      1  UNL1       -0.0814
     19 C         138.5927  139.9409  165.8085 C.ar    1  UNL1        0.0682
     20 C         138.1226  140.3253  164.4370 C.ar    1  UNL1        0.0120
     21 C         138.6067  141.5978  163.8073 C.ar    1  UNL1       -0.0014
     22 C         139.5611  142.4859  164.5493 C.ar    1  UNL1        0.0031
     23 C         140.0313  142.1015  165.9209 C.ar    1  UNL1        0.0099
     24 C         139.5471  140.8291  166.5505 C.ar    1  UNL1        0.0679
     25 CL        140.0173  140.4447  167.9220 Cl      1  UNL1       -0.0814
@<TRIPOS>BOND
     1    18    19    1
     2    19    20   ar
     3    20    21   ar
     4    21    22   ar
     5    22    17    1
     6    17     1    1
     7     1     2   ar
     8     2     3   ar
     9     3     6    1
    10     6     8    1
    11     8     9    1
    12     9    10    1
    13    10    11    1
    14    11    12    1
    15    12    13    1
    16    13    14    1
    17    14    15    1
    18    15    16    1
    19     3     4   ar
    20     4     5   ar
    21    22    23   ar
    22    23    24   ar
    23    24    25    1
    24    24    19   ar
    25     5     1   ar
    26    16    10    1
    27     6     7    1
