@<TRIPOS>MOLECULE
*****
 36 40 0 0 0
SMALL
GASTEIGER

@<TRIPOS>ATOM
      1 C         141.4448  144.7076  160.8910 C.3     1  UNL1        0.0731
      2 N         142.1917  143.5340  161.4522 N.3     1  UNL1       -0.2712
      3 C         143.0673  142.5941  160.6777 C.3     1  UNL1        0.0738
      4 C         143.6108  141.5735  161.6333 C.3     1  UNL1        0.0372
      5 C         144.4878  140.3618  161.7452 C.3     1  UNL1        0.0245
      6 C         144.4902  139.9221  163.1793 C.3     1  UNL1        0.0909
      7 N         143.6145  140.8621  163.9538 N.pl3   1  UNL1       -0.3077
      8 C         143.0711  141.8827  162.9982 C.3     1  UNL1        0.0901
      9 C         142.1940  143.0944  162.8863 C.3     1  UNL1        0.0921
     10 C         143.3320  140.7936  165.4253 C.ar    1  UNL1        0.0478
     11 C         143.3248  142.0485  166.2469 C.ar    1  UNL1        0.0145
     12 C         143.0423  141.9799  167.7185 C.ar    1  UNL1        0.0051
     13 C         142.7670  140.6564  168.3684 C.ar    1  UNL1        0.0715
     14 C         142.7742  139.4014  167.5469 C.ar    1  UNL1        0.0051
     15 C         143.0567  139.4700  166.0753 C.ar    1  UNL1        0.0145
     16 C         142.4845  140.5879  169.8400 C.3     1  UNL1        0.4186
     17 F         142.2019  140.5193  171.3116 F       1  UNL1       -0.1659
     18 F         143.0731  141.9562  170.0168 F       1  UNL1       -0.1659
     19 F         141.8959  139.2195  169.6632 F       1  UNL1       -0.1659
     20 C         140.0070  144.5596  160.4903 C.3     1  UNL1        0.0294
     21 C         139.6211  143.5676  159.4334 C.3     1  UNL1        0.0666
     22 S         138.8148  142.3569  159.7997 S.3     1  UNL1       -0.0756
     23 C         137.7129  142.5611  162.8646 C.3     1  UNL1        0.1340
     24 N         138.7338  141.5860  162.3578 N.ar    1  UNL1       -0.2884
     25 C         139.2403  141.4921  160.9490 C.ar    1  UNL1        0.1932
     26 N         140.2470  140.3816  160.8914 N.ar    1  UNL1       -0.1221
     27 N         140.3627  139.7891  162.2645 N.ar    1  UNL1       -0.1282
     28 C         139.4275  140.5334  163.1709 C.ar    1  UNL1        0.1683
     29 C         139.2221  140.2712  164.6334 C.ar    1  UNL1        0.0534
     30 C         139.8105  141.2018  165.6521 C.ar    1  UNL1        0.0094
     31 C         139.6051  140.9396  167.1147 C.ar    1  UNL1        0.0609
     32 C         138.8111  139.7467  167.5585 C.ar    1  UNL1        0.2610
     33 O         138.6057  139.4846  169.0210 O.2     1  UNL1       -0.2670
     34 N         138.2227  138.8162  166.5398 N.ar    1  UNL1       -0.2921
     35 C         137.4288  137.6234  166.9837 C.3     1  UNL1        0.1336
     36 C         138.4282  139.0784  165.0772 C.ar    1  UNL1        0.0814
@<TRIPOS>BOND
     1    23    24    1
     2    24    25   ar
     3    25    22    1
     4    22    21    1
     5    21    20    1
     6    20     1    1
     7     1     2    1
     8     2     3    1
     9     3     4    1
    10     4     5    1
    11     5     6    1
    12     6     7    1
    13     7    10    1
    14    10    11   ar
    15    11    12   ar
    16    12    13   ar
    17    13    16    1
    18    16    17    1
    19    16    18    1
    20    16    19    1
    21    13    14   ar
    22    14    15   ar
    23     7     8    1
    24     8     9    1
    25    25    26   ar
    26    26    27   ar
    27    27    28   ar
    28    28    29    1
    29    29    30   ar
    30    30    31   ar
    31    31    32   ar
    32    32    33    2
    33    32    34   ar
    34    34    35    1
    35    34    36   ar
    36    28    24   ar
    37    36    29   ar
    38     9     2    1
    39     8     4    1
    40    15    10   ar
@<TRIPOS>MOLECULE
*****
 36 40 0 0 0
SMALL
GASTEIGER

@<TRIPOS>ATOM
      1 C         142.2117  143.5954  159.7884 C.3     1  UNL1        0.0731
      2 N         141.4934  142.2894  159.9569 N.3     1  UNL1       -0.2712
      3 C         141.2344  141.2800  158.8780 C.3     1  UNL1        0.0738
      4 C         140.4889  140.1303  159.4883 C.3     1  UNL1        0.0372
      5 C         139.8681  138.7958  159.1987 C.3     1  UNL1        0.0245
      6 C         139.2827  138.2699  160.4758 C.3     1  UNL1        0.0909
      7 N         139.5418  139.2794  161.5547 N.pl3   1  UNL1       -0.3077
      8 C         140.2872  140.4291  160.9444 C.3     1  UNL1        0.0901
      9 C         140.9081  141.7636  161.2340 C.3     1  UNL1        0.0921
     10 C         139.1280  139.1601  162.9915 C.ar    1  UNL1        0.0478
     11 C         138.4795  140.3218  163.6842 C.ar    1  UNL1        0.0145
     12 C         138.0657  140.2025  165.1211 C.ar    1  UNL1        0.0051
     13 C         138.3005  138.9214  165.8652 C.ar    1  UNL1        0.0715
     14 C         138.9490  137.7597  165.1726 C.ar    1  UNL1        0.0051
     15 C         139.3628  137.8790  163.7357 C.ar    1  UNL1        0.0145
     16 C         137.8867  138.8021  167.3021 C.3     1  UNL1        0.4186
     17 F         137.4729  138.6828  168.7389 F       1  UNL1       -0.1659
     18 F         138.8016  139.9357  167.6597 F       1  UNL1       -0.1659
     19 F         136.9718  137.6685  166.9445 F       1  UNL1       -0.1659
     20 C         141.4386  144.8808  159.7788 C.3     1  UNL1        0.0294
     21 C         140.2418  145.0429  160.6684 C.3     1  UNL1        0.0666
     22 S         140.4023  145.6190  162.0440 S.3     1  UNL1       -0.0756
     23 C         142.5609  143.7388  163.6109 C.3     1  UNL1        0.1340
     24 N         141.1142  143.9072  163.9696 N.ar    1  UNL1       -0.2884
     25 C         140.1220  144.7714  163.2494 C.ar    1  UNL1        0.1932
     26 N         138.8003  144.6392  163.9462 N.ar    1  UNL1       -0.1221
     27 N         138.9756  143.6933  165.0970 N.ar    1  UNL1       -0.1282
     28 C         140.4057  143.2408  165.1116 C.ar    1  UNL1        0.1683
     29 C         141.0194  142.2891  166.0953 C.ar    1  UNL1        0.0534
     30 C         141.0213  142.6204  167.5582 C.ar    1  UNL1        0.0094
     31 C         141.6350  141.6688  168.5419 C.ar    1  UNL1        0.0609
     32 C         142.2469  140.3858  168.0626 C.ar    1  UNL1        0.2610
     33 O         142.8607  139.4342  169.0463 O.2     1  UNL1       -0.2670
     34 N         142.2451  140.0546  166.5996 N.ar    1  UNL1       -0.2921
     35 C         142.8570  138.7717  166.1204 C.3     1  UNL1        0.1336
     36 C         141.6313  141.0063  165.6159 C.ar    1  UNL1        0.0814
@<TRIPOS>BOND
     1    23    24    1
     2    24    25   ar
     3    25    22    1
     4    22    21    1
     5    21    20    1
     6    20     1    1
     7     1     2    1
     8     2     3    1
     9     3     4    1
    10     4     5    1
    11     5     6    1
    12     6     7    1
    13     7    10    1
    14    10    11   ar
    15    11    12   ar
    16    12    13   ar
    17    13    16    1
    18    16    17    1
    19    16    18    1
    20    16    19    1
    21    13    14   ar
    22    14    15   ar
    23     7     8    1
    24     8     9    1
    25    25    26   ar
    26    26    27   ar
    27    27    28   ar
    28    28    29    1
    29    29    30   ar
    30    30    31   ar
    31    31    32   ar
    32    32    33    2
    33    32    34   ar
    34    34    35    1
    35    34    36   ar
    36    28    24   ar
    37    36    29   ar
    38     9     2    1
    39     8     4    1
    40    15    10   ar
@<TRIPOS>MOLECULE
*****
 36 40 0 0 0
SMALL
GASTEIGER

@<TRIPOS>ATOM
      1 C         140.5521  144.0753  159.0478 C.3     1  UNL1        0.0731
      2 N         140.2789  142.6431  159.4003 N.3     1  UNL1       -0.2712
      3 C         140.3158  141.4798  158.4541 C.3     1  UNL1        0.0738
      4 C         139.9806  140.2406  159.2299 C.3     1  UNL1        0.0372
      5 C         139.7963  138.7557  159.1247 C.3     1  UNL1        0.0245
      6 C         139.4383  138.2353  160.4853 C.3     1  UNL1        0.0909
      7 N         139.4014  139.3988  161.4315 N.pl3   1  UNL1       -0.3077
      8 C         139.7366  140.6380  160.6556 C.3     1  UNL1        0.0901
      9 C         139.9209  142.1229  160.7609 C.3     1  UNL1        0.0921
     10 C         139.0849  139.3342  162.8963 C.ar    1  UNL1        0.0478
     11 C         138.6049  140.5604  163.6146 C.ar    1  UNL1        0.0145
     12 C         138.2884  140.4958  165.0794 C.ar    1  UNL1        0.0051
     13 C         138.4519  139.2051  165.8259 C.ar    1  UNL1        0.0715
     14 C         138.9319  137.9789  165.1075 C.ar    1  UNL1        0.0051
     15 C         139.2484  138.0434  163.6427 C.ar    1  UNL1        0.0145
     16 C         138.1354  139.1406  167.2907 C.3     1  UNL1        0.4186
     17 F         137.8189  139.0760  168.7555 F       1  UNL1       -0.1659
     18 F         137.1761  138.0163  167.0339 F       1  UNL1       -0.1659
     19 F         139.0946  140.2648  167.5475 F       1  UNL1       -0.1659
     20 C         141.0563  145.0226  160.0958 C.3     1  UNL1        0.0294
     21 C         140.1081  145.5971  161.1063 C.3     1  UNL1        0.0666
     22 S         140.5047  145.6683  162.5512 S.3     1  UNL1       -0.0756
     23 C         139.8537  143.8825  165.2038 C.3     1  UNL1        0.1340
     24 N         141.0893  143.7879  164.3587 N.ar    1  UNL1       -0.2884
     25 C         141.3886  144.6087  163.1394 C.ar    1  UNL1        0.1932
     26 N         142.7268  144.1839  162.6115 N.ar    1  UNL1       -0.1221
     27 N         143.2547  143.1005  163.5046 N.ar    1  UNL1       -0.1282
     28 C         142.2427  142.8557  164.5845 C.ar    1  UNL1        0.1683
     29 C         142.3630  141.8546  165.6950 C.ar    1  UNL1        0.0534
     30 C         142.0650  140.4075  165.4358 C.ar    1  UNL1        0.0094
     31 C         142.1852  139.4064  166.5463 C.ar    1  UNL1        0.0609
     32 C         142.6035  139.8524  167.9161 C.ar    1  UNL1        0.2610
     33 O         142.7237  138.8513  169.0266 O.2     1  UNL1       -0.2670
     34 N         142.9014  141.2995  168.1753 N.ar    1  UNL1       -0.2921
     35 C         143.3197  141.7454  169.5450 C.3     1  UNL1        0.1336
     36 C         142.7812  142.3006  167.0647 C.ar    1  UNL1        0.0814
@<TRIPOS>BOND
     1    23    24    1
     2    24    25   ar
     3    25    22    1
     4    22    21    1
     5    21    20    1
     6    20     1    1
     7     1     2    1
     8     2     3    1
     9     3     4    1
    10     4     5    1
    11     5     6    1
    12     6     7    1
    13     7    10    1
    14    10    11   ar
    15    11    12   ar
    16    12    13   ar
    17    13    16    1
    18    16    17    1
    19    16    18    1
    20    16    19    1
    21    13    14   ar
    22    14    15   ar
    23     7     8    1
    24     8     9    1
    25    25    26   ar
    26    26    27   ar
    27    27    28   ar
    28    28    29    1
    29    29    30   ar
    30    30    31   ar
    31    31    32   ar
    32    32    33    2
    33    32    34   ar
    34    34    35    1
    35    34    36   ar
    36    28    24   ar
    37    36    29   ar
    38     9     2    1
    39     8     4    1
    40    15    10   ar
@<TRIPOS>MOLECULE
*****
 36 40 0 0 0
SMALL
GASTEIGER

@<TRIPOS>ATOM
      1 C         141.4352  143.4350  157.9984 C.3     1  UNL1        0.0731
      2 N         140.9287  143.7634  159.3716 N.3     1  UNL1       -0.2712
      3 C         140.7482  145.1402  159.9389 C.3     1  UNL1        0.0738
      4 C         140.2218  145.0003  161.3365 C.3     1  UNL1        0.0372
      5 C         139.7848  145.7648  162.5508 C.3     1  UNL1        0.0245
      6 C         139.3700  144.7740  163.5979 C.3     1  UNL1        0.0909
      7 N         139.5506  143.3971  163.0306 N.pl3   1  UNL1       -0.3077
      8 C         140.0770  143.5370  161.6330 C.3     1  UNL1        0.0901
      9 C         140.5139  142.7726  160.4186 C.3     1  UNL1        0.0921
     10 C         139.2564  142.1069  163.7369 C.ar    1  UNL1        0.0478
     11 C         139.4760  141.9949  165.2165 C.ar    1  UNL1        0.0145
     12 C         139.1819  140.7047  165.9228 C.ar    1  UNL1        0.0051
     13 C         138.6680  139.5266  165.1496 C.ar    1  UNL1        0.0715
     14 C         138.4484  139.6386  163.6699 C.ar    1  UNL1        0.0051
     15 C         138.7426  140.9288  162.9636 C.ar    1  UNL1        0.0145
     16 C         138.3738  138.2364  165.8559 C.3     1  UNL1        0.4186
     17 F         138.0797  136.9462  166.5623 F       1  UNL1       -0.1659
     18 F         137.3283  138.9265  166.6810 F       1  UNL1       -0.1659
     19 F         139.4194  137.5463  165.0309 F       1  UNL1       -0.1659
     20 C         142.9006  143.2065  157.7743 C.3     1  UNL1        0.0294
     21 C         143.6158  142.1267  158.5311 C.3     1  UNL1        0.0666
     22 S         144.5885  142.4882  159.6141 S.3     1  UNL1       -0.0756
     23 C         144.2530  140.1366  161.8518 C.3     1  UNL1        0.1340
     24 N         143.9534  141.5928  162.0513 N.ar    1  UNL1       -0.2884
     25 C         144.1076  142.6737  161.0228 C.ar    1  UNL1        0.1932
     26 N         143.6965  143.9727  161.6502 N.ar    1  UNL1       -0.1221
     27 N         143.2882  143.6946  163.0665 N.ar    1  UNL1       -0.1282
     28 C         143.4469  142.2237  163.3145 C.ar    1  UNL1        0.1683
     29 C         143.1512  141.5093  164.5998 C.ar    1  UNL1        0.0534
     30 C         142.7560  140.0624  164.5800 C.ar    1  UNL1        0.0094
     31 C         142.4603  139.3480  165.8653 C.ar    1  UNL1        0.0609
     32 C         142.5597  140.0806  167.1705 C.ar    1  UNL1        0.2610
     33 O         142.2639  139.3661  168.4559 O.2     1  UNL1       -0.2670
     34 N         142.9548  141.5274  167.1904 N.ar    1  UNL1       -0.2921
     35 C         143.0542  142.2599  168.4956 C.3     1  UNL1        0.1336
     36 C         143.2506  142.2418  165.9050 C.ar    1  UNL1        0.0814
@<TRIPOS>BOND
     1    23    24    1
     2    24    25   ar
     3    25    22    1
     4    22    21    1
     5    21    20    1
     6    20     1    1
     7     1     2    1
     8     2     3    1
     9     3     4    1
    10     4     5    1
    11     5     6    1
    12     6     7    1
    13     7    10    1
    14    10    11   ar
    15    11    12   ar
    16    12    13   ar
    17    13    16    1
    18    16    17    1
    19    16    18    1
    20    16    19    1
    21    13    14   ar
    22    14    15   ar
    23     7     8    1
    24     8     9    1
    25    25    26   ar
    26    26    27   ar
    27    27    28   ar
    28    28    29    1
    29    29    30   ar
    30    30    31   ar
    31    31    32   ar
    32    32    33    2
    33    32    34   ar
    34    34    35    1
    35    34    36   ar
    36    28    24   ar
    37    36    29   ar
    38     9     2    1
    39     8     4    1
    40    15    10   ar
@<TRIPOS>MOLECULE
*****
 36 40 0 0 0
SMALL
GASTEIGER

@<TRIPOS>ATOM
      1 C         143.5844  142.8976  160.1399 C.3     1  UNL1        0.0731
      2 N         142.6044  141.7621  160.1233 N.3     1  UNL1       -0.2712
      3 C         142.2384  140.9307  158.9296 C.3     1  UNL1        0.0738
      4 C         141.2261  139.9135  159.3661 C.3     1  UNL1        0.0372
      5 C         140.3743  138.7709  158.8981 C.3     1  UNL1        0.0245
      6 C         139.5881  138.2675  160.0723 C.3     1  UNL1        0.0909
      7 N         139.9541  139.0990  161.2660 N.pl3   1  UNL1       -0.3077
      8 C         140.9664  140.1162  160.8295 C.3     1  UNL1        0.0901
      9 C         141.8182  141.2588  161.2975 C.3     1  UNL1        0.0921
     10 C         139.4043  138.9410  162.6526 C.ar    1  UNL1        0.0478
     11 C         139.4788  137.6109  163.3419 C.ar    1  UNL1        0.0145
     12 C         138.9290  137.4529  164.7285 C.ar    1  UNL1        0.0051
     13 C         138.3046  138.6250  165.4258 C.ar    1  UNL1        0.0715
     14 C         138.2300  139.9552  164.7365 C.ar    1  UNL1        0.0051
     15 C         138.7798  140.1132  163.3499 C.ar    1  UNL1        0.0145
     16 C         137.7548  138.4670  166.8124 C.3     1  UNL1        0.4186
     17 F         137.2049  138.3089  168.1991 F       1  UNL1       -0.1659
     18 F         137.7088  136.9795  166.6247 F       1  UNL1       -0.1659
     19 F         137.8008  139.9545  167.0002 F       1  UNL1       -0.1659
     20 C         144.7631  142.8575  161.0668 C.3     1  UNL1        0.0294
     21 C         144.5891  143.1999  162.5168 C.3     1  UNL1        0.0666
     22 S         143.5295  144.1758  162.9350 S.3     1  UNL1       -0.0756
     23 C         143.8763  142.6784  165.8138 C.3     1  UNL1        0.1340
     24 N         142.5762  143.0449  165.1615 N.ar    1  UNL1       -0.2884
     25 C         142.4168  143.7332  163.8383 C.ar    1  UNL1        0.1932
     26 N         140.9493  143.9012  163.5770 N.ar    1  UNL1       -0.1221
     27 N         140.2018  143.3167  164.7387 N.ar    1  UNL1       -0.1282
     28 C         141.2072  142.7875  165.7181 C.ar    1  UNL1        0.1683
     29 C         140.8979  142.1184  167.0245 C.ar    1  UNL1        0.0534
     30 C         141.0118  140.6280  167.1492 C.ar    1  UNL1        0.0094
     31 C         140.7025  139.9589  168.4556 C.ar    1  UNL1        0.0609
     32 C         140.2794  140.7804  169.6373 C.ar    1  UNL1        0.2610
     33 O         139.9701  140.1113  170.9437 O.2     1  UNL1       -0.2670
     34 N         140.1655  142.2708  169.5125 N.ar    1  UNL1       -0.2921
     35 C         139.7424  143.0922  170.6942 C.3     1  UNL1        0.1336
     36 C         140.4748  142.9398  168.2060 C.ar    1  UNL1        0.0814
@<TRIPOS>BOND
     1    23    24    1
     2    24    25   ar
     3    25    22    1
     4    22    21    1
     5    21    20    1
     6    20     1    1
     7     1     2    1
     8     2     3    1
     9     3     4    1
    10     4     5    1
    11     5     6    1
    12     6     7    1
    13     7    10    1
    14    10    11   ar
    15    11    12   ar
    16    12    13   ar
    17    13    16    1
    18    16    17    1
    19    16    18    1
    20    16    19    1
    21    13    14   ar
    22    14    15   ar
    23     7     8    1
    24     8     9    1
    25    25    26   ar
    26    26    27   ar
    27    27    28   ar
    28    28    29    1
    29    29    30   ar
    30    30    31   ar
    31    31    32   ar
    32    32    33    2
    33    32    34   ar
    34    34    35    1
    35    34    36   ar
    36    28    24   ar
    37    36    29   ar
    38     9     2    1
    39     8     4    1
    40    15    10   ar
@<TRIPOS>MOLECULE
*****
 36 40 0 0 0
SMALL
GASTEIGER

@<TRIPOS>ATOM
      1 C         139.5397  143.7351  158.4072 C.3     1  UNL1        0.0731
      2 N         139.8415  143.8492  159.8721 N.3     1  UNL1       -0.2712
      3 C         140.5434  144.9936  160.5412 C.3     1  UNL1        0.0738
      4 C         140.6301  144.6906  162.0077 C.3     1  UNL1        0.0372
      5 C         141.1175  145.2105  163.3275 C.3     1  UNL1        0.0245
      6 C         140.7704  144.2003  164.3806 C.3     1  UNL1        0.0909
      7 N         140.0684  143.0559  163.7115 N.pl3   1  UNL1       -0.3077
      8 C         139.9817  143.3589  162.2450 C.3     1  UNL1        0.0901
      9 C         139.4943  142.8389  160.9251 C.3     1  UNL1        0.0921
     10 C         139.5450  141.8246  164.3898 C.ar    1  UNL1        0.0478
     11 C         140.0968  141.4101  165.7216 C.ar    1  UNL1        0.0145
     12 C         139.5734  140.1788  166.3999 C.ar    1  UNL1        0.0051
     13 C         138.4982  139.3622  165.7465 C.ar    1  UNL1        0.0715
     14 C         137.9463  139.7767  164.4147 C.ar    1  UNL1        0.0051
     15 C         138.4697  141.0080  163.7363 C.ar    1  UNL1        0.0145
     16 C         137.9748  138.1309  166.4248 C.3     1  UNL1        0.4186
     17 F         137.4514  136.8997  167.1032 F       1  UNL1       -0.1659
     18 F         138.3975  137.3028  165.2478 F       1  UNL1       -0.1659
     19 F         137.5521  138.9591  167.6019 F       1  UNL1       -0.1659
     20 C         138.8531  142.5119  157.8760 C.3     1  UNL1        0.0294
     21 C         139.5367  141.6520  156.8545 C.3     1  UNL1        0.0666
     22 S         139.9999  140.2738  157.2233 S.3     1  UNL1       -0.0756
     23 C         142.3476  140.1725  159.4878 C.3     1  UNL1        0.1340
     24 N         140.9244  139.7361  159.6730 N.ar    1  UNL1       -0.2884
     25 C         139.8453  139.7827  158.6322 C.ar    1  UNL1        0.1932
     26 N         138.5845  139.2519  159.2475 N.ar    1  UNL1       -0.1221
     27 N         138.8844  138.8772  160.6686 N.ar    1  UNL1       -0.1282
     28 C         140.3305  139.1765  160.9317 C.ar    1  UNL1        0.1683
     29 C         141.0555  138.9550  162.2261 C.ar    1  UNL1        0.0534
     30 C         140.8174  137.7011  163.0141 C.ar    1  UNL1        0.0094
     31 C         141.5423  137.4796  164.3084 C.ar    1  UNL1        0.0609
     32 C         142.5054  138.5122  164.8148 C.ar    1  UNL1        0.2610
     33 O         143.2303  138.2907  166.1092 O.2     1  UNL1       -0.2670
     34 N         142.7434  139.7662  164.0269 N.ar    1  UNL1       -0.2921
     35 C         143.7065  140.7987  164.5333 C.3     1  UNL1        0.1336
     36 C         142.0185  139.9876  162.7325 C.ar    1  UNL1        0.0814
@<TRIPOS>BOND
     1    23    24    1
     2    24    25   ar
     3    25    22    1
     4    22    21    1
     5    21    20    1
     6    20     1    1
     7     1     2    1
     8     2     3    1
     9     3     4    1
    10     4     5    1
    11     5     6    1
    12     6     7    1
    13     7    10    1
    14    10    11   ar
    15    11    12   ar
    16    12    13   ar
    17    13    16    1
    18    16    17    1
    19    16    18    1
    20    16    19    1
    21    13    14   ar
    22    14    15   ar
    23     7     8    1
    24     8     9    1
    25    25    26   ar
    26    26    27   ar
    27    27    28   ar
    28    28    29    1
    29    29    30   ar
    30    30    31   ar
    31    31    32   ar
    32    32    33    2
    33    32    34   ar
    34    34    35    1
    35    34    36   ar
    36    28    24   ar
    37    36    29   ar
    38     9     2    1
    39     8     4    1
    40    15    10   ar
@<TRIPOS>MOLECULE
*****
 36 40 0 0 0
SMALL
GASTEIGER

@<TRIPOS>ATOM
      1 C         143.8900  142.1298  160.4492 C.3     1  UNL1        0.0731
      2 N         142.7333  141.1764  160.5036 N.3     1  UNL1       -0.2712
      3 C         142.1682  140.4088  159.3453 C.3     1  UNL1        0.0738
      4 C         141.0242  139.5813  159.8517 C.3     1  UNL1        0.0372
      5 C         139.9679  138.5954  159.4488 C.3     1  UNL1        0.0245
      6 C         139.1730  138.2423  160.6709 C.3     1  UNL1        0.0909
      7 N         139.7382  139.0099  161.8291 N.pl3   1  UNL1       -0.3077
      8 C         140.8822  139.8374  161.3228 C.3     1  UNL1        0.0901
      9 C         141.9385  140.8233  161.7257 C.3     1  UNL1        0.0921
     10 C         139.2457  138.9589  163.2451 C.ar    1  UNL1        0.0478
     11 C         139.1925  137.6490  163.9739 C.ar    1  UNL1        0.0145
     12 C         138.7000  137.5980  165.3899 C.ar    1  UNL1        0.0051
     13 C         138.2607  138.8569  166.0769 C.ar    1  UNL1        0.0715
     14 C         138.3138  140.1669  165.3480 C.ar    1  UNL1        0.0051
     15 C         138.8063  140.2179  163.9321 C.ar    1  UNL1        0.0145
     16 C         137.7682  138.8060  167.4928 C.3     1  UNL1        0.4186
     17 F         137.2757  138.7550  168.9088 F       1  UNL1       -0.1659
     18 F         136.7904  137.7333  167.1141 F       1  UNL1       -0.1659
     19 F         138.7460  139.8786  167.8716 F       1  UNL1       -0.1659
     20 C         144.1400  143.0715  161.5897 C.3     1  UNL1        0.0294
     21 C         145.1815  142.7440  162.6184 C.3     1  UNL1        0.0666
     22 S         145.2500  141.3646  163.2036 S.3     1  UNL1       -0.0756
     23 C         144.1158  143.2689  165.5988 C.3     1  UNL1        0.1340
     24 N         143.7589  141.8296  165.3729 N.ar    1  UNL1       -0.2884
     25 C         144.2803  140.9543  164.2719 C.ar    1  UNL1        0.1932
     26 N         143.6616  139.5966  164.4268 N.ar    1  UNL1       -0.1221
     27 N         142.7580  139.6328  165.6235 N.ar    1  UNL1       -0.1282
     28 C         142.8181  141.0129  166.2083 C.ar    1  UNL1        0.1683
     29 C         142.0689  141.4921  167.4162 C.ar    1  UNL1        0.0534
     30 C         141.0113  142.5462  167.2735 C.ar    1  UNL1        0.0094
     31 C         140.2621  143.0253  168.4814 C.ar    1  UNL1        0.0609
     32 C         140.5706  142.4503  169.8321 C.ar    1  UNL1        0.2610
     33 O         139.8214  142.9295  171.0401 O.2     1  UNL1       -0.2670
     34 N         141.6282  141.3962  169.9749 N.ar    1  UNL1       -0.2921
     35 C         141.9366  140.8213  171.3255 C.3     1  UNL1        0.1336
     36 C         142.3774  140.9171  168.7668 C.ar    1  UNL1        0.0814
@<TRIPOS>BOND
     1    23    24    1
     2    24    25   ar
     3    25    22    1
     4    22    21    1
     5    21    20    1
     6    20     1    1
     7     1     2    1
     8     2     3    1
     9     3     4    1
    10     4     5    1
    11     5     6    1
    12     6     7    1
    13     7    10    1
    14    10    11   ar
    15    11    12   ar
    16    12    13   ar
    17    13    16    1
    18    16    17    1
    19    16    18    1
    20    16    19    1
    21    13    14   ar
    22    14    15   ar
    23     7     8    1
    24     8     9    1
    25    25    26   ar
    26    26    27   ar
    27    27    28   ar
    28    28    29    1
    29    29    30   ar
    30    30    31   ar
    31    31    32   ar
    32    32    33    2
    33    32    34   ar
    34    34    35    1
    35    34    36   ar
    36    28    24   ar
    37    36    29   ar
    38     9     2    1
    39     8     4    1
    40    15    10   ar
@<TRIPOS>MOLECULE
*****
 36 40 0 0 0
SMALL
GASTEIGER

@<TRIPOS>ATOM
      1 C         141.5624  142.7410  158.5938 C.3     1  UNL1        0.0731
      2 N         141.9435  141.5385  159.4055 N.3     1  UNL1       -0.2712
      3 C         143.1401  140.6635  159.1767 C.3     1  UNL1        0.0738
      4 C         143.1310  139.5842  160.2183 C.3     1  UNL1        0.0372
      5 C         143.8650  138.3763  160.7207 C.3     1  UNL1        0.0245
      6 C         143.1163  137.8377  161.9037 C.3     1  UNL1        0.0909
      7 N         141.9197  138.7128  162.1325 N.pl3   1  UNL1       -0.3077
      8 C         141.9288  139.7921  161.0909 C.3     1  UNL1        0.0901
      9 C         141.1948  141.0000  160.5885 C.3     1  UNL1        0.0921
     10 C         140.8940  138.5390  163.2132 C.ar    1  UNL1        0.0478
     11 C         140.9409  137.3338  164.1049 C.ar    1  UNL1        0.0145
     12 C         139.9153  137.1601  165.1856 C.ar    1  UNL1        0.0051
     13 C         138.8427  138.1915  165.3745 C.ar    1  UNL1        0.0715
     14 C         138.7957  139.3968  164.4827 C.ar    1  UNL1        0.0051
     15 C         139.8214  139.5705  163.4020 C.ar    1  UNL1        0.0145
     16 C         137.8170  138.0177  166.4552 C.3     1  UNL1        0.4186
     17 F         136.7914  137.8439  167.5358 F       1  UNL1       -0.1659
     18 F         137.8698  136.5306  166.2661 F       1  UNL1       -0.1659
     19 F         137.7643  139.5048  166.6442 F       1  UNL1       -0.1659
     20 C         140.2601  143.4387  158.8530 C.3     1  UNL1        0.0294
     21 C         140.2250  144.9312  158.9995 C.3     1  UNL1        0.0666
     22 S         140.5033  145.5607  160.3322 S.3     1  UNL1       -0.0756
     23 C         139.0998  143.9235  162.7817 C.3     1  UNL1        0.1340
     24 N         140.5733  144.0282  162.5212 N.ar    1  UNL1       -0.2884
     25 C         141.2184  144.7807  161.3953 C.ar    1  UNL1        0.1932
     26 N         142.7042  144.6163  161.5192 N.ar    1  UNL1       -0.1221
     27 N         142.9775  143.7622  162.7216 N.ar    1  UNL1       -0.1282
     28 C         141.6605  143.3987  163.3409 C.ar    1  UNL1        0.1683
     29 C         141.4651  142.5540  164.5650 C.ar    1  UNL1        0.0534
     30 C         140.3738  142.8862  165.5391 C.ar    1  UNL1        0.0094
     31 C         140.1784  142.0416  166.7632 C.ar    1  UNL1        0.0609
     32 C         141.0742  140.8646  167.0131 C.ar    1  UNL1        0.2610
     33 O         140.8788  140.0200  168.2371 O.2     1  UNL1       -0.2670
     34 N         142.1655  140.5324  166.0390 N.ar    1  UNL1       -0.2921
     35 C         143.0612  139.3556  166.2890 C.3     1  UNL1        0.1336
     36 C         142.3609  141.3772  164.8149 C.ar    1  UNL1        0.0814
@<TRIPOS>BOND
     1    23    24    1
     2    24    25   ar
     3    25    22    1
     4    22    21    1
     5    21    20    1
     6    20     1    1
     7     1     2    1
     8     2     3    1
     9     3     4    1
    10     4     5    1
    11     5     6    1
    12     6     7    1
    13     7    10    1
    14    10    11   ar
    15    11    12   ar
    16    12    13   ar
    17    13    16    1
    18    16    17    1
    19    16    18    1
    20    16    19    1
    21    13    14   ar
    22    14    15   ar
    23     7     8    1
    24     8     9    1
    25    25    26   ar
    26    26    27   ar
    27    27    28   ar
    28    28    29    1
    29    29    30   ar
    30    30    31   ar
    31    31    32   ar
    32    32    33    2
    33    32    34   ar
    34    34    35    1
    35    34    36   ar
    36    28    24   ar
    37    36    29   ar
    38     9     2    1
    39     8     4    1
    40    15    10   ar
@<TRIPOS>MOLECULE
*****
 36 40 0 0 0
SMALL
GASTEIGER

@<TRIPOS>ATOM
      1 C         142.5870  144.0691  157.7197 C.3     1  UNL1        0.0731
      2 N         142.1401  144.1915  159.1464 N.3     1  UNL1       -0.2712
      3 C         141.3139  145.3047  159.7191 C.3     1  UNL1        0.0738
      4 C         141.1042  145.0233  161.1774 C.3     1  UNL1        0.0372
      5 C         140.4639  145.5374  162.4327 C.3     1  UNL1        0.0245
      6 C         140.7647  144.5679  163.5372 C.3     1  UNL1        0.0909
      7 N         141.5909  143.4546  162.9644 N.pl3   1  UNL1       -0.3077
      8 C         141.8007  143.7361  161.5060 C.3     1  UNL1        0.0901
      9 C         142.4409  143.2220  160.2507 C.3     1  UNL1        0.0921
     10 C         142.1153  142.2682  163.7177 C.ar    1  UNL1        0.0478
     11 C         141.3712  141.7497  164.9124 C.ar    1  UNL1        0.0145
     12 C         141.8955  140.5633  165.6657 C.ar    1  UNL1        0.0051
     13 C         143.1640  139.8954  165.2243 C.ar    1  UNL1        0.0715
     14 C         143.9082  140.4139  164.0295 C.ar    1  UNL1        0.0051
     15 C         143.3838  141.6003  163.2762 C.ar    1  UNL1        0.0145
     16 C         143.6883  138.7090  165.9776 C.3     1  UNL1        0.4186
     17 F         144.2127  137.5226  166.7310 F       1  UNL1       -0.1659
     18 F         144.9543  138.7586  165.1746 F       1  UNL1       -0.1659
     19 F         142.4224  138.6593  166.7807 F       1  UNL1       -0.1659
     20 C         143.3144  142.8389  157.2645 C.3     1  UNL1        0.0294
     21 C         142.5849  141.7775  156.4955 C.3     1  UNL1        0.0666
     22 S         142.7735  140.3320  156.8487 S.3     1  UNL1       -0.0756
     23 C         140.2515  139.5884  158.7816 C.3     1  UNL1        0.1340
     24 N         141.6987  139.5746  159.1760 N.ar    1  UNL1       -0.2884
     25 C         142.8579  139.9164  158.2875 C.ar    1  UNL1        0.1932
     26 N         144.1164  139.7697  159.0905 N.ar    1  UNL1       -0.1221
     27 N         143.7349  139.3372  160.4752 N.ar    1  UNL1       -0.1282
     28 C         142.2407  139.2166  160.5281 C.ar    1  UNL1        0.1683
     29 C         141.4307  138.8096  161.7232 C.ar    1  UNL1        0.0534
     30 C         141.8335  137.6103  162.5291 C.ar    1  UNL1        0.0094
     31 C         141.0235  137.2032  163.7242 C.ar    1  UNL1        0.0609
     32 C         139.8108  137.9956  164.1134 C.ar    1  UNL1        0.2610
     33 O         139.0008  137.5885  165.3085 O.2     1  UNL1       -0.2670
     34 N         139.4080  139.1949  163.3075 N.ar    1  UNL1       -0.2921
     35 C         138.1952  139.9872  163.6968 C.3     1  UNL1        0.1336
     36 C         140.2180  139.6019  162.1124 C.ar    1  UNL1        0.0814
@<TRIPOS>BOND
     1    23    24    1
     2    24    25   ar
     3    25    22    1
     4    22    21    1
     5    21    20    1
     6    20     1    1
     7     1     2    1
     8     2     3    1
     9     3     4    1
    10     4     5    1
    11     5     6    1
    12     6     7    1
    13     7    10    1
    14    10    11   ar
    15    11    12   ar
    16    12    13   ar
    17    13    16    1
    18    16    17    1
    19    16    18    1
    20    16    19    1
    21    13    14   ar
    22    14    15   ar
    23     7     8    1
    24     8     9    1
    25    25    26   ar
    26    26    27   ar
    27    27    28   ar
    28    28    29    1
    29    29    30   ar
    30    30    31   ar
    31    31    32   ar
    32    32    33    2
    33    32    34   ar
    34    34    35    1
    35    34    36   ar
    36    28    24   ar
    37    36    29   ar
    38     9     2    1
    39     8     4    1
    40    15    10   ar
