@<TRIPOS>MOLECULE
*****
 58 64 0 0 0
SMALL
GASTEIGER

@<TRIPOS>ATOM
      1 C         141.7288  140.3172  159.9318 C.ar    1  UNL1        0.0172
      2 C         140.8435  140.3523  158.7214 C.ar    1  UNL1        0.0015
      3 C         140.8700  139.2184  157.7398 C.ar    1  UNL1        0.0000
      4 C         141.7817  138.0494  157.9687 C.ar    1  UNL1        0.0000
      5 C         142.6669  138.0143  159.1790 C.ar    1  UNL1        0.0000
      6 C         142.6404  139.1482  160.1606 C.ar    1  UNL1        0.0015
      7 C         141.0167  142.9369  162.7059 C.ar    1  UNL1        0.1353
      8 N         142.3066  143.4551  162.1421 N.ar    1  UNL1       -0.2279
      9 C         142.7303  142.5368  161.0343 C.ar    1  UNL1        0.1171
     10 C         141.7023  141.4512  160.9134 C.ar    1  UNL1        0.0769
     11 N         140.6433  141.6984  161.9466 N.ar    1  UNL1       -0.3394
     12 H         139.8436  141.1450  162.0994 H       1  UNL1        0.1671
     13 C         140.7652  141.7487  165.7348 C.2     1  UNL1        0.2447
     14 O         141.6157  140.9164  164.8217 O.2     1  UNL1       -0.2730
     15 N         140.1216  143.0035  165.2237 N.am    1  UNL1       -0.2730
     16 C         139.2494  143.9325  166.0151 C.3     1  UNL1        0.0939
     17 C         138.8260  145.0528  165.1119 C.3     1  UNL1        0.0237
     18 C         139.4365  144.8162  163.7624 C.3     1  UNL1        0.0293
     19 C         140.2372  143.5497  163.8315 C.3     1  UNL1        0.1319
     20 C         140.5582  141.3262  167.1591 C.3     1  UNL1        0.1578
     21 C         141.3720  141.9519  168.2528 C.ar    1  UNL1        0.0010
     22 C         142.7788  141.4926  168.4976 C.ar    1  UNL1       -0.0025
     23 C         143.5925  142.1183  169.5914 C.ar    1  UNL1       -0.0003
     24 C         142.9994  143.2034  170.4403 C.ar    1  UNL1       -0.0000
     25 C         141.5926  143.6628  170.1955 C.ar    1  UNL1       -0.0003
     26 C         140.7789  143.0371  169.1018 C.ar    1  UNL1       -0.0025
     27 N         139.5376  140.2779  167.4896 N.3     1  UNL1       -0.2631
     28 C         138.5987  140.3374  169.9115 C.3     1  UNL1        0.0188
     29 C         139.4751  139.7018  168.8733 C.3     1  UNL1        0.0728
     30 C         138.5793  139.8055  166.4367 C.3     1  UNL1        0.0728
     31 C         137.9652  138.4409  166.5393 C.3     1  UNL1        0.0188
     32 C         141.8081  136.9155  156.9870 C.ar    1  UNL1        0.0000
     33 C         142.9080  135.8974  157.0466 C.ar    1  UNL1        0.0000
     34 C         142.9344  134.7634  156.0650 C.ar    1  UNL1        0.0015
     35 C         141.8609  134.6477  155.0237 C.ar    1  UNL1        0.0172
     36 C         140.7609  135.6659  154.9642 C.ar    1  UNL1        0.0015
     37 C         140.7345  136.7997  155.9458 C.ar    1  UNL1        0.0000
     38 C         141.8872  133.5138  154.0421 C.ar    1  UNL1        0.0769
     39 C         142.0037  133.6402  152.5520 C.ar    1  UNL1        0.1171
     40 N         141.9902  132.2590  151.9672 N.ar    1  UNL1       -0.2279
     41 C         141.8654  131.2789  153.0959 C.ar    1  UNL1        0.1353
     42 N         141.8018  132.0545  154.3783 N.ar    1  UNL1       -0.3394
     43 H         141.7186  131.6727  155.2819 H       1  UNL1        0.1671
     44 C         141.8134  129.7855  152.9652 C.3     1  UNL1        0.1319
     45 C         140.8577  129.0081  152.1095 C.3     1  UNL1        0.0293
     46 C         141.1617  127.5495  152.2827 C.3     1  UNL1        0.0237
     47 C         142.3052  127.4254  153.2455 C.3     1  UNL1        0.0939
     48 N         142.7080  128.8073  153.6673 N.am    1  UNL1       -0.2730
     49 C         143.8116  129.1508  154.6233 C.2     1  UNL1        0.2439
     50 O         144.1002  130.5858  154.9514 O.2     1  UNL1       -0.2731
     51 C         144.6266  128.0593  155.2514 C.3     1  UNL1        0.1513
     52 C         145.9275  127.6431  154.6313 C.3     1  UNL1        0.0313
     53 N         144.1407  127.3840  156.4995 N.am    1  UNL1       -0.2640
     54 C         144.2383  128.0886  157.8201 C.2     1  UNL1        0.4021
     55 O         144.8219  129.4685  157.8925 O.2     1  UNL1       -0.2264
     56 H         143.7577  126.4783  156.4519 H       1  UNL1        0.1532
     57 O         143.7524  127.4133  159.0682 O.3     1  UNL1       -0.4306
     58 C         144.2663  127.8525  160.4073 C.3     1  UNL1        0.2573
@<TRIPOS>BOND
     1    28    29    1
     2    29    27    1
     3    27    30    1
     4    30    31    1
     5    20    27    1
     6    20    13    1
     7    13    14    2
     8    13    15   am
     9    15    16    1
    10    16    17    1
    11    17    18    1
    12    18    19    1
    13    19     7    1
    14     7     8   ar
    15     8     9   ar
    16     9    10   ar
    17    10     1    1
    18     1     2   ar
    19     2     3   ar
    20     3     4   ar
    21     4    32    1
    22    32    33   ar
    23    33    34   ar
    24    34    35   ar
    25    35    38    1
    26    38    39   ar
    27    39    40   ar
    28    40    41   ar
    29    44    41    1
    30    44    45    1
    31    45    46    1
    32    46    47    1
    33    47    48    1
    34    48    49   am
    35    49    50    2
    36    49    51    1
    37    51    52    1
    38    51    53    1
    39    53    54   am
    40    54    55    2
    41    54    57    1
    42    57    58    1
    43    41    42   ar
    44    35    36   ar
    45    36    37   ar
    46     4     5   ar
    47     5     6   ar
    48    10    11   ar
    49    20    21    1
    50    21    22   ar
    51    22    23   ar
    52    23    24   ar
    53    24    25   ar
    54    25    26   ar
    55    19    15    1
    56    11     7   ar
    57    26    21   ar
    58     6     1   ar
    59    37    32   ar
    60    42    38   ar
    61    48    44    1
    62    53    56    1
    63    42    43    1
    64    11    12    1
@<TRIPOS>MOLECULE
*****
 58 64 0 0 0
SMALL
GASTEIGER

@<TRIPOS>ATOM
      1 C         142.1283  134.9689  155.1661 C.ar    1  UNL1        0.0172
      2 C         140.9147  135.8412  155.0387 C.ar    1  UNL1        0.0015
      3 C         140.7334  137.0128  155.9576 C.ar    1  UNL1        0.0000
      4 C         141.7657  137.3122  157.0039 C.ar    1  UNL1        0.0000
      5 C         142.9793  136.4399  157.1313 C.ar    1  UNL1        0.0000
      6 C         143.1606  135.2683  156.2125 C.ar    1  UNL1        0.0015
      7 C         142.9341  131.6172  153.3821 C.ar    1  UNL1        0.1353
      8 N         142.2436  132.3712  152.2845 N.ar    1  UNL1       -0.2279
      9 C         141.8577  133.7185  152.8191 C.ar    1  UNL1        0.1171
     10 C         142.3097  133.7972  154.2472 C.ar    1  UNL1        0.0769
     11 N         142.9750  132.4986  154.5952 N.ar    1  UNL1       -0.3394
     12 H         143.3692  132.2656  155.4667 H       1  UNL1        0.1671
     13 C         142.1781  129.1110  155.3306 C.2     1  UNL1        0.2447
     14 O         141.4648  130.3857  155.6717 O.2     1  UNL1       -0.2730
     15 N         143.1392  129.0742  154.1796 N.am    1  UNL1       -0.2730
     16 C         143.9216  127.8790  153.7220 C.3     1  UNL1        0.0939
     17 C         144.7526  128.2923  152.5437 C.3     1  UNL1        0.0237
     18 C         144.4839  129.7430  152.2729 C.3     1  UNL1        0.0293
     19 C         143.4867  130.2262  153.2840 C.3     1  UNL1        0.1319
     20 C         141.9303  127.8731  156.1406 C.3     1  UNL1        0.1578
     21 C         142.7848  127.5762  157.3372 C.ar    1  UNL1        0.0010
     22 C         144.2409  127.2629  157.1598 C.ar    1  UNL1       -0.0025
     23 C         145.0954  126.9660  158.3564 C.ar    1  UNL1       -0.0003
     24 C         144.4937  126.9824  159.7302 C.ar    1  UNL1       -0.0000
     25 C         143.0375  127.2957  159.9076 C.ar    1  UNL1       -0.0003
     26 C         142.1831  127.5925  158.7111 C.ar    1  UNL1       -0.0025
     27 N         140.8280  126.9321  155.7541 N.3     1  UNL1       -0.2631
     28 C         139.9228  127.0629  153.3222 C.3     1  UNL1        0.0188
     29 C         140.7656  126.3823  154.3597 C.3     1  UNL1        0.0728
     30 C         139.7880  126.5407  156.7617 C.3     1  UNL1        0.0728
     31 C         138.3701  126.9998  156.5930 C.3     1  UNL1        0.0188
     32 C         141.5843  138.4838  157.9228 C.ar    1  UNL1        0.0000
     33 C         142.7179  139.4387  158.1534 C.ar    1  UNL1        0.0000
     34 C         142.5365  140.6104  159.0723 C.ar    1  UNL1        0.0015
     35 C         141.2214  140.8272  159.7606 C.ar    1  UNL1        0.0172
     36 C         140.0878  139.8722  159.5299 C.ar    1  UNL1        0.0015
     37 C         140.2692  138.7006  158.6111 C.ar    1  UNL1        0.0000
     38 C         141.0400  141.9988  160.6794 C.ar    1  UNL1        0.0769
     39 C         141.4819  143.4068  160.4106 C.ar    1  UNL1        0.1171
     40 N         141.0998  144.2463  161.5935 N.ar    1  UNL1       -0.2279
     41 C         140.4218  143.3571  162.5934 C.ar    1  UNL1        0.1353
     42 N         140.3849  141.9681  162.0284 N.ar    1  UNL1       -0.3394
     43 H         139.9985  141.1754  162.4662 H       1  UNL1        0.1671
     44 C         139.8765  143.7823  163.9245 C.3     1  UNL1        0.1319
     45 C         138.8968  144.8931  164.1619 C.3     1  UNL1        0.0293
     46 C         138.6300  144.9687  165.6360 C.3     1  UNL1        0.0237
     47 C         139.4448  143.9046  166.3097 C.3     1  UNL1        0.0939
     48 N         140.2152  143.1715  165.2519 N.am    1  UNL1       -0.2730
     49 C         141.1586  142.0281  165.4813 C.2     1  UNL1        0.2439
     50 O         141.8614  141.3910  164.3194 O.2     1  UNL1       -0.2731
     51 C         141.3993  141.5219  166.8727 C.3     1  UNL1        0.1513
     52 C         140.6429  140.3293  167.3782 C.3     1  UNL1        0.0313
     53 N         142.3963  142.2083  167.7585 N.am    1  UNL1       -0.2640
     54 C         142.0337  142.5473  169.1740 C.2     1  UNL1        0.4021
     55 O         140.6741  142.1999  169.7036 O.2     1  UNL1       -0.2264
     56 H         143.2887  142.4362  167.4108 H       1  UNL1        0.1532
     57 O         143.0308  143.2337  170.0598 O.3     1  UNL1       -0.4306
     58 C         144.4247  142.6927  170.1801 C.3     1  UNL1        0.2573
@<TRIPOS>BOND
     1    28    29    1
     2    29    27    1
     3    27    30    1
     4    30    31    1
     5    20    27    1
     6    20    13    1
     7    13    14    2
     8    13    15   am
     9    15    16    1
    10    16    17    1
    11    17    18    1
    12    18    19    1
    13    19     7    1
    14     7     8   ar
    15     8     9   ar
    16     9    10   ar
    17    10     1    1
    18     1     2   ar
    19     2     3   ar
    20     3     4   ar
    21     4    32    1
    22    32    33   ar
    23    33    34   ar
    24    34    35   ar
    25    35    38    1
    26    38    39   ar
    27    39    40   ar
    28    40    41   ar
    29    44    41    1
    30    44    45    1
    31    45    46    1
    32    46    47    1
    33    47    48    1
    34    48    49   am
    35    49    50    2
    36    49    51    1
    37    51    52    1
    38    51    53    1
    39    53    54   am
    40    54    55    2
    41    54    57    1
    42    57    58    1
    43    41    42   ar
    44    35    36   ar
    45    36    37   ar
    46     4     5   ar
    47     5     6   ar
    48    10    11   ar
    49    20    21    1
    50    21    22   ar
    51    22    23   ar
    52    23    24   ar
    53    24    25   ar
    54    25    26   ar
    55    19    15    1
    56    11     7   ar
    57    26    21   ar
    58     6     1   ar
    59    37    32   ar
    60    42    38   ar
    61    48    44    1
    62    53    56    1
    63    42    43    1
    64    11    12    1
@<TRIPOS>MOLECULE
*****
 58 64 0 0 0
SMALL
GASTEIGER

@<TRIPOS>ATOM
      1 C         141.4327  134.9524  154.9580 C.ar    1  UNL1        0.0172
      2 C         142.4855  135.1689  156.0042 C.ar    1  UNL1        0.0015
      3 C         142.3881  136.3412  156.9348 C.ar    1  UNL1        0.0000
      4 C         141.2379  137.2970  156.8192 C.ar    1  UNL1        0.0000
      5 C         140.1850  137.0805  155.7730 C.ar    1  UNL1        0.0000
      6 C         140.2825  135.9082  154.8424 C.ar    1  UNL1        0.0015
      7 C         141.4712  131.5175  153.1508 C.ar    1  UNL1        0.1353
      8 N         141.8887  132.4344  152.0395 N.ar    1  UNL1       -0.2279
      9 C         141.9251  133.8327  152.5812 C.ar    1  UNL1        0.1171
     10 C         141.5301  133.7800  154.0273 C.ar    1  UNL1        0.0769
     11 N         141.2496  132.3491  154.3793 N.ar    1  UNL1       -0.3394
     12 H         140.9692  132.0146  155.2618 H       1  UNL1        0.1671
     13 C         143.0427  129.2871  154.9410 C.2     1  UNL1        0.2447
     14 O         143.4166  130.7031  155.2651 O.2     1  UNL1       -0.2730
     15 N         142.0269  129.0049  153.8740 N.am    1  UNL1       -0.2730
     16 C         141.5551  127.6480  153.4425 C.3     1  UNL1        0.0939
     17 C         140.5412  127.8346  152.3530 C.3     1  UNL1        0.0237
     18 C         140.3863  129.3069  152.1111 C.3     1  UNL1        0.0293
     19 C         141.3046  130.0301  153.0511 C.3     1  UNL1        0.1319
     20 C         143.6848  128.1532  155.6840 C.3     1  UNL1        0.1578
     21 C         143.2129  127.7972  157.0626 C.ar    1  UNL1        0.0010
     22 C         142.1615  126.7434  157.2467 C.ar    1  UNL1       -0.0025
     23 C         141.6896  126.3874  158.6254 C.ar    1  UNL1       -0.0003
     24 C         142.2693  127.0853  159.8199 C.ar    1  UNL1       -0.0000
     25 C         143.3207  128.1391  159.6358 C.ar    1  UNL1       -0.0003
     26 C         143.7926  128.4950  158.2572 C.ar    1  UNL1       -0.0025
     27 N         144.7986  127.3752  155.0483 N.3     1  UNL1       -0.2631
     28 C         145.5550  128.1036  152.6718 C.3     1  UNL1        0.0188
     29 C         144.8089  127.1565  153.5643 C.3     1  UNL1        0.0728
     30 C         145.9022  126.8159  155.8964 C.3     1  UNL1        0.0728
     31 C         147.2913  126.7041  155.3417 C.3     1  UNL1        0.0188
     32 C         141.1405  138.4694  157.7499 C.ar    1  UNL1        0.0000
     33 C         139.8077  139.1005  158.0244 C.ar    1  UNL1        0.0000
     34 C         139.7103  140.2728  158.9551 C.ar    1  UNL1        0.0015
     35 C         140.9457  140.8141  159.6113 C.ar    1  UNL1        0.0172
     36 C         142.2786  140.1830  159.3368 C.ar    1  UNL1        0.0015
     37 C         142.3759  139.0107  158.4061 C.ar    1  UNL1        0.0000
     38 C         140.8484  141.9864  160.5419 C.ar    1  UNL1        0.0769
     39 C         141.3776  143.3655  160.2812 C.ar    1  UNL1        0.1171
     40 N         141.0611  144.2169  161.4748 N.ar    1  UNL1       -0.2279
     41 C         140.3362  143.3640  162.4734 C.ar    1  UNL1        0.1353
     42 N         140.2048  141.9855  161.8968 N.ar    1  UNL1       -0.3394
     43 H         139.7720  141.2153  162.3313 H       1  UNL1        0.1671
     44 C         139.8313  143.8111  163.8133 C.3     1  UNL1        0.1319
     45 C         138.7126  144.7806  164.0553 C.3     1  UNL1        0.0293
     46 C         138.5465  144.9358  165.5380 C.3     1  UNL1        0.0237
     47 C         139.5625  144.0623  166.2123 C.3     1  UNL1        0.0939
     48 N         140.3565  143.3672  165.1463 N.am    1  UNL1       -0.2730
     49 C         141.4788  142.3982  165.3736 C.2     1  UNL1        0.2439
     50 O         142.1838  141.7792  164.2032 O.2     1  UNL1       -0.2731
     51 C         141.8960  142.0482  166.7713 C.3     1  UNL1        0.1513
     52 C         143.2514  142.4505  167.2723 C.3     1  UNL1        0.0313
     53 N         140.9579  141.2959  167.6678 N.am    1  UNL1       -0.2640
     54 C         140.4323  141.9423  168.9151 C.2     1  UNL1        0.4021
     55 O         140.8450  143.3411  169.2659 O.2     1  UNL1       -0.2264
     56 H         140.6871  140.3778  167.4375 H       1  UNL1        0.1532
     57 O         139.4942  141.1900  169.8117 O.3     1  UNL1       -0.4306
     58 C         139.9869  140.0043  170.5872 C.3     1  UNL1        0.2573
@<TRIPOS>BOND
     1    28    29    1
     2    29    27    1
     3    27    30    1
     4    30    31    1
     5    20    27    1
     6    20    13    1
     7    13    14    2
     8    13    15   am
     9    15    16    1
    10    16    17    1
    11    17    18    1
    12    18    19    1
    13    19     7    1
    14     7     8   ar
    15     8     9   ar
    16     9    10   ar
    17    10     1    1
    18     1     2   ar
    19     2     3   ar
    20     3     4   ar
    21     4    32    1
    22    32    33   ar
    23    33    34   ar
    24    34    35   ar
    25    35    38    1
    26    38    39   ar
    27    39    40   ar
    28    40    41   ar
    29    44    41    1
    30    44    45    1
    31    45    46    1
    32    46    47    1
    33    47    48    1
    34    48    49   am
    35    49    50    2
    36    49    51    1
    37    51    52    1
    38    51    53    1
    39    53    54   am
    40    54    55    2
    41    54    57    1
    42    57    58    1
    43    41    42   ar
    44    35    36   ar
    45    36    37   ar
    46     4     5   ar
    47     5     6   ar
    48    10    11   ar
    49    20    21    1
    50    21    22   ar
    51    22    23   ar
    52    23    24   ar
    53    24    25   ar
    54    25    26   ar
    55    19    15    1
    56    11     7   ar
    57    26    21   ar
    58     6     1   ar
    59    37    32   ar
    60    42    38   ar
    61    48    44    1
    62    53    56    1
    63    42    43    1
    64    11    12    1
@<TRIPOS>MOLECULE
*****
 58 64 0 0 0
SMALL
GASTEIGER

@<TRIPOS>ATOM
      1 C         141.7931  133.9117  154.5133 C.ar    1  UNL1        0.0172
      2 C         142.4670  134.1575  155.8306 C.ar    1  UNL1        0.0015
      3 C         142.1798  135.4145  156.5970 C.ar    1  UNL1        0.0000
      4 C         141.2186  136.4257  156.0460 C.ar    1  UNL1        0.0000
      5 C         140.5447  136.1800  154.7287 C.ar    1  UNL1        0.0000
      6 C         140.8319  134.9230  153.9623 C.ar    1  UNL1        0.0015
      7 C         142.3289  130.3112  153.1659 C.ar    1  UNL1        0.1353
      8 N         142.7154  131.1291  151.9693 N.ar    1  UNL1       -0.2279
      9 C         142.5617  132.5773  152.3284 C.ar    1  UNL1        0.1171
     10 C         142.0803  132.6546  153.7469 C.ar    1  UNL1        0.0769
     11 N         141.9364  131.2541  154.2645 N.ar    1  UNL1       -0.3394
     12 H         141.6369  130.9986  155.1668 H       1  UNL1        0.1671
     13 C         144.0626  128.5130  155.2658 C.2     1  UNL1        0.2447
     14 O         144.2616  129.9917  155.4198 O.2     1  UNL1       -0.2730
     15 N         143.1310  127.9870  154.2144 N.am    1  UNL1       -0.2730
     16 C         142.8326  126.5421  153.9437 C.3     1  UNL1        0.0939
     17 C         141.8514  126.4758  152.8111 C.3     1  UNL1        0.0237
     18 C         141.5432  127.8796  152.3819 C.3     1  UNL1        0.0293
     19 C         142.3341  128.8136  153.2492 C.3     1  UNL1        0.1319
     20 C         144.7953  127.5602  156.1632 C.3     1  UNL1        0.1578
     21 C         144.3642  127.3918  157.5900 C.ar    1  UNL1        0.0010
     22 C         143.1650  126.5522  157.9171 C.ar    1  UNL1       -0.0025
     23 C         142.7339  126.3838  159.3439 C.ar    1  UNL1       -0.0003
     24 C         143.5021  127.0551  160.4436 C.ar    1  UNL1       -0.0000
     25 C         144.7012  127.8947  160.1165 C.ar    1  UNL1       -0.0003
     26 C         145.1323  128.0630  158.6898 C.ar    1  UNL1       -0.0025
     27 N         145.9591  126.7757  155.6337 N.3     1  UNL1       -0.2631
     28 C         146.7982  127.1983  153.2114 C.3     1  UNL1        0.0188
     29 C         146.0025  126.3825  154.1868 C.3     1  UNL1        0.0728
     30 C         147.0795  126.3844  156.5511 C.3     1  UNL1        0.0728
     31 C         148.4619  126.9169  156.3162 C.3     1  UNL1        0.0188
     32 C         140.9314  137.6828  156.8124 C.ar    1  UNL1        0.0000
     33 C         141.6262  137.9415  158.1163 C.ar    1  UNL1        0.0000
     34 C         141.3390  139.1986  158.8828 C.ar    1  UNL1        0.0015
     35 C         140.3570  140.1970  158.3452 C.ar    1  UNL1        0.0172
     36 C         139.6622  139.9382  157.0412 C.ar    1  UNL1        0.0015
     37 C         139.9495  138.6812  156.2748 C.ar    1  UNL1        0.0000
     38 C         140.0698  141.4540  159.1115 C.ar    1  UNL1        0.0769
     39 C         139.5902  142.7509  158.5302 C.ar    1  UNL1        0.1171
     40 N         139.4357  143.7333  159.6531 N.ar    1  UNL1       -0.2279
     41 C         139.8199  143.0435  160.9285 C.ar    1  UNL1        0.1353
     42 N         140.2118  141.6348  160.5938 N.ar    1  UNL1       -0.3394
     43 H         140.5099  140.9493  161.2344 H       1  UNL1        0.1671
     44 C         139.8134  143.6550  162.2982 C.3     1  UNL1        0.1319
     45 C         138.7220  144.5040  162.8795 C.3     1  UNL1        0.0293
     46 C         139.1312  144.8986  164.2676 C.3     1  UNL1        0.0237
     47 C         140.4756  144.2935  164.5442 C.3     1  UNL1        0.0939
     48 N         140.8971  143.5249  163.3271 N.am    1  UNL1       -0.2730
     49 C         142.1777  142.7604  163.1669 C.2     1  UNL1        0.2439
     50 O         142.4636  142.0364  161.8846 O.2     1  UNL1       -0.2731
     51 C         143.1724  142.7199  164.2889 C.3     1  UNL1        0.1513
     52 C         144.0206  143.9216  164.5831 C.3     1  UNL1        0.0313
     53 N         143.3190  141.4777  165.1167 N.am    1  UNL1       -0.2640
     54 C         144.1783  140.3489  164.6297 C.2     1  UNL1        0.4021
     55 O         144.8911  140.4623  163.3148 O.2     1  UNL1       -0.2264
     56 H         142.8511  141.4033  165.9798 H       1  UNL1        0.1532
     57 O         144.3248  139.1066  165.4575 O.3     1  UNL1       -0.4306
     58 C         143.1081  138.4274  166.0128 C.3     1  UNL1        0.2573
@<TRIPOS>BOND
     1    28    29    1
     2    29    27    1
     3    27    30    1
     4    30    31    1
     5    20    27    1
     6    20    13    1
     7    13    14    2
     8    13    15   am
     9    15    16    1
    10    16    17    1
    11    17    18    1
    12    18    19    1
    13    19     7    1
    14     7     8   ar
    15     8     9   ar
    16     9    10   ar
    17    10     1    1
    18     1     2   ar
    19     2     3   ar
    20     3     4   ar
    21     4    32    1
    22    32    33   ar
    23    33    34   ar
    24    34    35   ar
    25    35    38    1
    26    38    39   ar
    27    39    40   ar
    28    40    41   ar
    29    44    41    1
    30    44    45    1
    31    45    46    1
    32    46    47    1
    33    47    48    1
    34    48    49   am
    35    49    50    2
    36    49    51    1
    37    51    52    1
    38    51    53    1
    39    53    54   am
    40    54    55    2
    41    54    57    1
    42    57    58    1
    43    41    42   ar
    44    35    36   ar
    45    36    37   ar
    46     4     5   ar
    47     5     6   ar
    48    10    11   ar
    49    20    21    1
    50    21    22   ar
    51    22    23   ar
    52    23    24   ar
    53    24    25   ar
    54    25    26   ar
    55    19    15    1
    56    11     7   ar
    57    26    21   ar
    58     6     1   ar
    59    37    32   ar
    60    42    38   ar
    61    48    44    1
    62    53    56    1
    63    42    43    1
    64    11    12    1
@<TRIPOS>MOLECULE
*****
 58 64 0 0 0
SMALL
GASTEIGER

@<TRIPOS>ATOM
      1 C         134.1403  141.6147  154.7690 C.ar    1  UNL1        0.0172
      2 C         134.2168  140.6614  155.9246 C.ar    1  UNL1        0.0015
      3 C         135.5102  140.4793  156.6621 C.ar    1  UNL1        0.0000
      4 C         136.7270  141.2503  156.2440 C.ar    1  UNL1        0.0000
      5 C         136.6505  142.2036  155.0884 C.ar    1  UNL1        0.0000
      6 C         135.3571  142.3857  154.3509 C.ar    1  UNL1        0.0015
      7 C         130.4767  141.9319  153.5268 C.ar    1  UNL1        0.1353
      8 N         131.2363  142.2227  152.2664 N.ar    1  UNL1       -0.2279
      9 C         132.7011  142.1393  152.5784 C.ar    1  UNL1        0.1171
     10 C         132.8468  141.7969  154.0315 C.ar    1  UNL1        0.0769
     11 N         131.4720  141.6687  154.6176 N.ar    1  UNL1       -0.3394
     12 H         131.2602  141.4502  155.5539 H       1  UNL1        0.1671
     13 C         128.7770  140.0452  155.5764 C.2     1  UNL1        0.2447
     14 O         130.2620  139.8489  155.6558 O.2     1  UNL1       -0.2730
     15 N         128.2026  141.0412  154.6130 N.am    1  UNL1       -0.2730
     16 C         126.7460  141.3447  154.4226 C.3     1  UNL1        0.0939
     17 C         126.6271  142.3996  153.3629 C.3     1  UNL1        0.0237
     18 C         128.0101  142.7479  152.8983 C.3     1  UNL1        0.0293
     19 C         128.9838  141.9084  153.6709 C.3     1  UNL1        0.1319
     20 C         127.8665  139.2456  156.4605 C.3     1  UNL1        0.1578
     21 C         127.6028  139.6943  157.8673 C.ar    1  UNL1        0.0010
     22 C         126.7413  140.8954  158.1223 C.ar    1  UNL1       -0.0025
     23 C         126.4775  141.3441  159.5292 C.ar    1  UNL1       -0.0003
     24 C         127.0753  140.5917  160.6808 C.ar    1  UNL1       -0.0000
     25 C         127.9368  139.3905  160.4258 C.ar    1  UNL1       -0.0003
     26 C         128.2005  138.9418  159.0190 C.ar    1  UNL1       -0.0025
     27 N         127.2198  137.9972  155.9377 N.3     1  UNL1       -0.2631
     28 C         127.1399  135.8563  157.4075 C.3     1  UNL1        0.0188
     29 C         126.4756  137.0901  156.8723 C.3     1  UNL1        0.0728
     30 C         127.3171  137.6558  154.4803 C.3     1  UNL1        0.0728
     31 C         126.5648  138.4677  153.4679 C.3     1  UNL1        0.0188
     32 C         138.0205  141.0681  156.9816 C.ar    1  UNL1        0.0000
     33 C         138.0347  141.0662  158.4815 C.ar    1  UNL1        0.0000
     34 C         139.3282  140.8840  159.2190 C.ar    1  UNL1        0.0015
     35 C         140.6073  140.7037  158.4566 C.ar    1  UNL1        0.0172
     36 C         140.5930  140.7055  156.9566 C.ar    1  UNL1        0.0015
     37 C         139.2996  140.8877  156.2191 C.ar    1  UNL1        0.0000
     38 C         141.9007  140.5214  159.1940 C.ar    1  UNL1        0.0769
     39 C         143.1244  139.8299  158.6703 C.ar    1  UNL1        0.1171
     40 N         144.1775  139.8798  159.7373 N.ar    1  UNL1       -0.2279
     41 C         143.6046  140.6022  160.9205 C.ar    1  UNL1        0.1353
     42 N         142.1974  140.9988  160.5847 N.ar    1  UNL1       -0.3394
     43 H         141.5775  141.4866  161.1737 H       1  UNL1        0.1671
     44 C         144.3142  140.8794  162.2127 C.3     1  UNL1        0.1319
     45 C         145.5383  141.7298  162.3815 C.3     1  UNL1        0.0293
     46 C         145.9050  141.7308  163.8360 C.3     1  UNL1        0.0237
     47 C         144.9075  140.8811  164.5661 C.3     1  UNL1        0.0939
     48 N         143.9244  140.3550  163.5628 N.am    1  UNL1       -0.2730
     49 C         142.7564  139.4612  163.8579 C.2     1  UNL1        0.2439
     50 O         141.8549  139.0134  162.7458 O.2     1  UNL1       -0.2731
     51 C         142.4900  139.0152  165.2651 C.3     1  UNL1        0.1513
     52 C         143.3423  137.9498  165.8883 C.3     1  UNL1        0.0313
     53 N         141.3713  139.6347  166.0490 N.am    1  UNL1       -0.2640
     54 C         141.5789  140.0051  167.4877 C.2     1  UNL1        0.4021
     55 O         142.9053  139.7560  168.1423 O.2     1  UNL1       -0.2264
     56 H         140.5007  139.7982  165.6193 H       1  UNL1        0.1532
     57 O         140.4601  140.6246  168.2716 O.3     1  UNL1       -0.4306
     58 C         140.3974  142.1138  168.4405 C.3     1  UNL1        0.2573
@<TRIPOS>BOND
     1    28    29    1
     2    29    27    1
     3    27    30    1
     4    30    31    1
     5    20    27    1
     6    20    13    1
     7    13    14    2
     8    13    15   am
     9    15    16    1
    10    16    17    1
    11    17    18    1
    12    18    19    1
    13    19     7    1
    14     7     8   ar
    15     8     9   ar
    16     9    10   ar
    17    10     1    1
    18     1     2   ar
    19     2     3   ar
    20     3     4   ar
    21     4    32    1
    22    32    33   ar
    23    33    34   ar
    24    34    35   ar
    25    35    38    1
    26    38    39   ar
    27    39    40   ar
    28    40    41   ar
    29    44    41    1
    30    44    45    1
    31    45    46    1
    32    46    47    1
    33    47    48    1
    34    48    49   am
    35    49    50    2
    36    49    51    1
    37    51    52    1
    38    51    53    1
    39    53    54   am
    40    54    55    2
    41    54    57    1
    42    57    58    1
    43    41    42   ar
    44    35    36   ar
    45    36    37   ar
    46     4     5   ar
    47     5     6   ar
    48    10    11   ar
    49    20    21    1
    50    21    22   ar
    51    22    23   ar
    52    23    24   ar
    53    24    25   ar
    54    25    26   ar
    55    19    15    1
    56    11     7   ar
    57    26    21   ar
    58     6     1   ar
    59    37    32   ar
    60    42    38   ar
    61    48    44    1
    62    53    56    1
    63    42    43    1
    64    11    12    1
@<TRIPOS>MOLECULE
*****
 58 64 0 0 0
SMALL
GASTEIGER

@<TRIPOS>ATOM
      1 C         135.0367  141.8982  155.0527 C.ar    1  UNL1        0.0172
      2 C         135.1036  140.7505  156.0161 C.ar    1  UNL1        0.0015
      3 C         136.2274  140.6668  157.0060 C.ar    1  UNL1        0.0000
      4 C         137.2844  141.7308  157.0324 C.ar    1  UNL1        0.0000
      5 C         137.2175  142.8785  156.0690 C.ar    1  UNL1        0.0000
      6 C         136.0937  142.9622  155.0791 C.ar    1  UNL1        0.0015
      7 C         131.6960  142.2096  153.1011 C.ar    1  UNL1        0.1353
      8 N         132.6706  142.0123  151.9779 N.ar    1  UNL1       -0.2279
      9 C         134.0406  141.8716  152.5723 C.ar    1  UNL1        0.1171
     10 C         133.9128  141.9820  154.0627 C.ar    1  UNL1        0.0769
     11 N         132.4638  142.1908  154.3895 N.ar    1  UNL1       -0.3394
     12 H         132.0834  142.2970  155.2914 H       1  UNL1        0.1671
     13 C         129.3974  140.6117  154.7781 C.2     1  UNL1        0.2447
     14 O         130.7994  140.2154  155.1351 O.2     1  UNL1       -0.2730
     15 N         129.1574  141.6588  153.7313 N.am    1  UNL1       -0.2730
     16 C         127.8188  142.1554  153.2715 C.3     1  UNL1        0.0939
     17 C         128.0480  143.1967  152.2164 C.3     1  UNL1        0.0237
     18 C         129.5284  143.3437  152.0242 C.3     1  UNL1        0.0293
     19 C         130.2140  142.3933  152.9604 C.3     1  UNL1        0.1319
     20 C         128.2354  139.9608  155.4680 C.3     1  UNL1        0.1578
     21 C         127.7566  140.4869  156.7887 C.ar    1  UNL1        0.0010
     22 C         128.0261  139.7145  158.0459 C.ar    1  UNL1       -0.0025
     23 C         127.5473  140.2406  159.3665 C.ar    1  UNL1       -0.0003
     24 C         126.7990  141.5391  159.4298 C.ar    1  UNL1       -0.0000
     25 C         126.5296  142.3114  158.1725 C.ar    1  UNL1       -0.0003
     26 C         127.0083  141.7854  156.8520 C.ar    1  UNL1       -0.0025
     27 N         127.5522  138.7838  154.8373 N.3     1  UNL1       -0.2631
     28 C         126.7692  138.7908  152.3600 C.3     1  UNL1        0.0188
     29 C         126.4752  139.0004  153.8159 C.3     1  UNL1        0.0728
     30 C         127.9458  137.3900  155.2280 C.3     1  UNL1        0.0728
     31 C         126.8928  136.3389  155.4186 C.3     1  UNL1        0.0188
     32 C         138.4083  141.6470  158.0223 C.ar    1  UNL1        0.0000
     33 C         138.2877  142.3278  159.3534 C.ar    1  UNL1        0.0000
     34 C         139.4116  142.2440  160.3434 C.ar    1  UNL1        0.0015
     35 C         140.6561  141.4794  160.0021 C.ar    1  UNL1        0.0172
     36 C         140.7767  140.7985  158.6709 C.ar    1  UNL1        0.0015
     37 C         139.6529  140.8823  157.6811 C.ar    1  UNL1        0.0000
     38 C         141.7800  141.3956  160.9920 C.ar    1  UNL1        0.0769
     39 C         142.9751  140.4943  160.8949 C.ar    1  UNL1        0.1171
     40 N         143.8398  140.7400  162.0956 N.ar    1  UNL1       -0.2279
     41 C         143.1791  141.7933  162.9348 C.ar    1  UNL1        0.1353
     42 N         141.9061  142.1984  162.2527 N.ar    1  UNL1       -0.3394
     43 H         141.2658  142.8729  162.5758 H       1  UNL1        0.1671
     44 C         143.7001  142.3446  164.2289 C.3     1  UNL1        0.1319
     45 C         144.8172  143.3342  164.3796 C.3     1  UNL1        0.0293
     46 C         145.0029  143.6043  165.8434 C.3     1  UNL1        0.0237
     47 C         144.0005  142.7816  166.5973 C.3     1  UNL1        0.0939
     48 N         143.1954  142.0031  165.5995 N.am    1  UNL1       -0.2730
     49 C         142.0811  141.0503  165.9167 C.2     1  UNL1        0.2439
     50 O         141.3632  140.3400  164.8076 O.2     1  UNL1       -0.2731
     51 C         141.6848  140.8077  167.3430 C.3     1  UNL1        0.1513
     52 C         142.3245  139.6959  168.1205 C.3     1  UNL1        0.0313
     53 N         140.6488  141.6771  167.9916 N.am    1  UNL1       -0.2640
     54 C         141.0566  142.6892  169.0209 C.2     1  UNL1        0.4021
     55 O         142.5005  142.8319  169.4014 O.2     1  UNL1       -0.2264
     56 H         139.7011  141.5834  167.7419 H       1  UNL1        0.1532
     57 O         140.0206  143.5586  169.6696 O.3     1  UNL1       -0.4306
     58 C         139.3980  143.1412  170.9689 C.3     1  UNL1        0.2573
@<TRIPOS>BOND
     1    28    29    1
     2    29    27    1
     3    27    30    1
     4    30    31    1
     5    20    27    1
     6    20    13    1
     7    13    14    2
     8    13    15   am
     9    15    16    1
    10    16    17    1
    11    17    18    1
    12    18    19    1
    13    19     7    1
    14     7     8   ar
    15     8     9   ar
    16     9    10   ar
    17    10     1    1
    18     1     2   ar
    19     2     3   ar
    20     3     4   ar
    21     4    32    1
    22    32    33   ar
    23    33    34   ar
    24    34    35   ar
    25    35    38    1
    26    38    39   ar
    27    39    40   ar
    28    40    41   ar
    29    44    41    1
    30    44    45    1
    31    45    46    1
    32    46    47    1
    33    47    48    1
    34    48    49   am
    35    49    50    2
    36    49    51    1
    37    51    52    1
    38    51    53    1
    39    53    54   am
    40    54    55    2
    41    54    57    1
    42    57    58    1
    43    41    42   ar
    44    35    36   ar
    45    36    37   ar
    46     4     5   ar
    47     5     6   ar
    48    10    11   ar
    49    20    21    1
    50    21    22   ar
    51    22    23   ar
    52    23    24   ar
    53    24    25   ar
    54    25    26   ar
    55    19    15    1
    56    11     7   ar
    57    26    21   ar
    58     6     1   ar
    59    37    32   ar
    60    42    38   ar
    61    48    44    1
    62    53    56    1
    63    42    43    1
    64    11    12    1
