@<TRIPOS>MOLECULE
*****
 36 41 0 0 0
SMALL
GASTEIGER

@<TRIPOS>ATOM
      1 C         139.3821  146.9099  156.3459 C.ar    1  UNL1        0.1028
      2 C         139.3917  146.8041  154.8496 C.ar    1  UNL1        0.0131
      3 C         139.9598  145.5839  154.1876 C.ar    1  UNL1       -0.0015
      4 C         140.5964  144.2904  154.7304 C.ar    1  UNL1        0.0035
      5 C         140.1660  145.2477  155.8020 C.ar    1  UNL1        0.0358
      6 C         139.9407  145.7954  157.1801 C.ar    1  UNL1        0.1545
      7 O         139.9513  145.8596  158.6787 O.3     1  UNL1       -0.4528
      8 C         140.1960  145.4316  160.0953 C.ar    1  UNL1        0.1454
      9 C         139.9137  146.1072  161.6316 C.ar    1  UNL1        0.0375
     10 C         140.2119  145.5652  162.9981 C.ar    1  UNL1        0.0032
     11 C         140.8617  144.2215  163.1467 C.ar    1  UNL1        0.0014
     12 C         141.1431  143.7154  164.5304 C.ar    1  UNL1        0.0001
     13 C         141.7919  142.3765  164.7218 C.ar    1  UNL1        0.0013
     14 C         142.1591  141.5438  163.5294 C.ar    1  UNL1        0.0149
     15 C         141.8777  142.0499  162.1457 C.ar    1  UNL1        0.0539
     16 C         141.2290  143.3888  161.9544 C.ar    1  UNL1        0.0167
     17 C         140.6420  144.5691  161.2387 C.ar    1  UNL1        0.0387
     18 N         142.5005  140.7334  161.7869 N.am    1  UNL1       -0.2572
     19 C         143.0975  139.5295  162.4534 C.3     1  UNL1        0.1005
     20 C         143.5279  138.5722  161.3818 C.3     1  UNL1        0.0509
     21 C         143.3468  138.8514  159.6802 C.3     1  UNL1        0.1508
     22 N         143.4560  138.5402  158.2170 N.am    1  UNL1       -0.2980
     23 C         143.3262  138.7252  156.7341 C.2     1  UNL1        0.2288
     24 O         143.9290  137.4426  156.2424 O.2     1  UNL1       -0.2747
     25 C         142.9748  139.3816  155.4319 C.3     1  UNL1        0.1303
     26 C         142.4494  140.4207  154.4862 C.ar    1  UNL1        0.0670
     27 C         142.8033  139.6144  153.2719 C.ar    1  UNL1        0.1138
     28 N         142.3935  140.3976  152.0600 N.ar    1  UNL1       -0.2227
     29 C         141.7863  141.6879  152.5254 C.ar    1  UNL1        0.1786
     30 N         141.8208  141.7021  154.0249 N.ar    1  UNL1       -0.3078
     31 C         141.1741  143.0528  154.1101 C.3     1  UNL1        0.1341
     32 C         143.0133  139.6169  160.9263 C.2     1  UNL1        0.2473
     33 O         143.2095  139.2477  161.6050 O.2     1  UNL1       -0.2728
     34 H         143.8830  137.6537  158.2520 H       1  UNL1        0.1498
     35 N         138.2459  149.3504  157.6699 N.1     1  UNL1       -0.1907
     36 C         138.8140  148.1301  157.0079 C.1     1  UNL1        0.1035
@<TRIPOS>BOND
     1    35    36    3
     2    36     1    1
     3     1     2   ar
     4     2     3   ar
     5     3     4   ar
     6     4     5   ar
     7     5     6   ar
     8     6     7    1
     9     7     8    1
    10     8     9   ar
    11     9    10   ar
    12    10    11   ar
    13    11    12   ar
    14    12    13   ar
    15    13    14   ar
    16    14    15   ar
    17    15    16   ar
    18    16    17   ar
    19    15    18    1
    20    18    19    1
    21    19    20    1
    22    21    20    1
    23    21    22    1
    24    22    23   am
    25    23    24    2
    26    23    25    1
    27    25    26    1
    28    26    27   ar
    29    27    28   ar
    30    28    29   ar
    31    29    30   ar
    32    30    31    1
    33    21    32    1
    34    32    33    2
    35     6     1   ar
    36    17     8   ar
    37    32    18   am
    38    31     4    1
    39    16    11   ar
    40    30    26   ar
    41    22    34    1
@<TRIPOS>MOLECULE
*****
 36 41 0 0 0
SMALL
GASTEIGER

@<TRIPOS>ATOM
      1 C         139.6340  145.8855  156.0130 C.ar    1  UNL1        0.1028
      2 C         139.6370  145.5449  154.5521 C.ar    1  UNL1        0.0131
      3 C         140.0703  144.1817  154.1006 C.ar    1  UNL1       -0.0015
      4 C         140.5597  142.9289  154.8518 C.ar    1  UNL1        0.0035
      5 C         140.2330  144.0837  155.7516 C.ar    1  UNL1        0.0358
      6 C         140.0644  144.8627  157.0223 C.ar    1  UNL1        0.1545
      7 O         140.0769  145.1606  158.4924 O.3     1  UNL1       -0.4528
      8 C         140.2685  144.9372  159.9632 C.ar    1  UNL1        0.1454
      9 C         140.0567  145.8728  161.3690 C.ar    1  UNL1        0.0375
     10 C         140.2891  145.5239  162.8092 C.ar    1  UNL1        0.0032
     11 C         140.7874  144.1583  163.1791 C.ar    1  UNL1        0.0014
     12 C         141.0071  143.8491  164.6305 C.ar    1  UNL1        0.0001
     13 C         141.5046  142.4952  165.0419 C.ar    1  UNL1        0.0013
     14 C         141.7826  141.4504  164.0019 C.ar    1  UNL1        0.0149
     15 C         141.5629  141.7596  162.5507 C.ar    1  UNL1        0.0539
     16 C         141.0654  143.1136  162.1393 C.ar    1  UNL1        0.0167
     17 C         140.6136  144.2227  161.2361 C.ar    1  UNL1        0.0387
     18 N         142.0391  140.3437  162.4148 N.am    1  UNL1       -0.2572
     19 C         142.4983  139.2027  163.2733 C.3     1  UNL1        0.1005
     20 C         142.8250  138.0479  162.3734 C.3     1  UNL1        0.0509
     21 C         142.6813  138.0735  160.6457 C.3     1  UNL1        0.1508
     22 N         142.7607  137.5257  159.2517 N.am    1  UNL1       -0.2980
     23 C         142.6569  137.4878  157.7557 C.2     1  UNL1        0.2288
     24 O         143.1173  136.0864  157.4829 O.2     1  UNL1       -0.2747
     25 C         142.3839  137.9648  156.3601 C.3     1  UNL1        0.1303
     26 C         141.9786  138.8924  155.2531 C.ar    1  UNL1        0.0670
     27 C         142.2463  137.8717  154.1871 C.ar    1  UNL1        0.1138
     28 N         141.9287  138.4937  152.8596 N.ar    1  UNL1       -0.2227
     29 C         141.4649  139.8989  153.1052 C.ar    1  UNL1        0.1786
     30 N         141.4957  140.1453  154.5845 N.ar    1  UNL1       -0.3078
     31 C         141.0004  141.5543  154.4443 C.3     1  UNL1        0.1341
     32 C         142.4294  139.0571  161.7499 C.2     1  UNL1        0.2473
     33 O         142.5817  138.7804  162.4818 O.2     1  UNL1       -0.2728
     34 H         143.0879  136.6152  159.4334 H       1  UNL1        0.1498
     35 N         138.7673  148.6119  156.9159 N.1     1  UNL1       -0.1907
     36 C         139.2007  147.2486  156.4645 C.1     1  UNL1        0.1035
@<TRIPOS>BOND
     1    35    36    3
     2    36     1    1
     3     1     2   ar
     4     2     3   ar
     5     3     4   ar
     6     4     5   ar
     7     5     6   ar
     8     6     7    1
     9     7     8    1
    10     8     9   ar
    11     9    10   ar
    12    10    11   ar
    13    11    12   ar
    14    12    13   ar
    15    13    14   ar
    16    14    15   ar
    17    15    16   ar
    18    16    17   ar
    19    15    18    1
    20    18    19    1
    21    19    20    1
    22    21    20    1
    23    21    22    1
    24    22    23   am
    25    23    24    2
    26    23    25    1
    27    25    26    1
    28    26    27   ar
    29    27    28   ar
    30    28    29   ar
    31    29    30   ar
    32    30    31    1
    33    21    32    1
    34    32    33    2
    35     6     1   ar
    36    17     8   ar
    37    32    18   am
    38    31     4    1
    39    16    11   ar
    40    30    26   ar
    41    22    34    1
@<TRIPOS>MOLECULE
*****
 36 41 0 0 0
SMALL
GASTEIGER

@<TRIPOS>ATOM
      1 C         142.6009  136.9509  156.5606 C.ar    1  UNL1        0.1028
      2 C         142.4134  137.0666  155.0768 C.ar    1  UNL1        0.0131
      3 C         141.9470  138.3605  154.4784 C.ar    1  UNL1       -0.0015
      4 C         141.5798  139.7292  155.0826 C.ar    1  UNL1        0.0035
      5 C         142.0021  138.7127  156.1016 C.ar    1  UNL1        0.0358
      6 C         142.3219  138.1292  157.4459 C.ar    1  UNL1        0.1545
      7 O         142.4960  138.0575  158.9340 O.3     1  UNL1       -0.4528
      8 C         142.5009  138.5074  160.3649 C.ar    1  UNL1        0.1454
      9 C         142.8787  137.7880  161.8604 C.ar    1  UNL1        0.0375
     10 C         142.8412  138.3587  163.2471 C.ar    1  UNL1        0.0032
     11 C         142.4173  139.7815  163.4614 C.ar    1  UNL1        0.0014
     12 C         142.3933  140.3141  164.8635 C.ar    1  UNL1        0.0001
     13 C         141.9753  141.7317  165.1202 C.ar    1  UNL1        0.0013
     14 C         141.5814  142.6165  163.9748 C.ar    1  UNL1        0.0149
     15 C         141.6054  142.0839  162.5728 C.ar    1  UNL1        0.0539
     16 C         142.0233  140.6663  162.3161 C.ar    1  UNL1        0.0167
     17 C         142.3359  139.4180  161.5454 C.ar    1  UNL1        0.0387
     18 N         141.1385  143.4791  162.2808 N.am    1  UNL1       -0.2572
     19 C         140.8132  144.7525  163.0037 C.3     1  UNL1        0.1005
     20 C         140.3908  145.7690  161.9847 C.3     1  UNL1        0.0509
     21 C         140.3082  145.4775  160.2775 C.3     1  UNL1        0.1508
     22 N         140.0570  145.8107  158.8368 N.am    1  UNL1       -0.2980
     23 C         139.9659  145.6184  157.3520 C.2     1  UNL1        0.2288
     24 O         139.4965  146.9780  156.9262 O.2     1  UNL1       -0.2747
     25 C         140.0473  144.9264  156.0236 C.3     1  UNL1        0.1303
     26 C         140.2902  143.8283  155.0311 C.ar    1  UNL1        0.0670
     27 C         139.9027  144.6851  153.8626 C.ar    1  UNL1        0.1138
     28 N         140.0348  143.8586  152.6178 N.ar    1  UNL1       -0.2227
     29 C         140.5040  142.4910  153.0171 C.ar    1  UNL1        0.1786
     30 N         140.6619  142.4722  154.5086 N.ar    1  UNL1       -0.3078
     31 C         141.1120  141.0414  154.5265 C.3     1  UNL1        0.1341
     32 C         140.6857  144.6637  161.4797 C.2     1  UNL1        0.2473
     33 O         140.6344  145.0531  162.1734 O.2     1  UNL1       -0.2728
     34 H         139.7709  146.7495  158.9155 H       1  UNL1        0.1498
     35 N         143.5337  134.3629  157.7573 N.1     1  UNL1       -0.1907
     36 C         143.0673  135.6569  157.1590 C.1     1  UNL1        0.1035
@<TRIPOS>BOND
     1    35    36    3
     2    36     1    1
     3     1     2   ar
     4     2     3   ar
     5     3     4   ar
     6     4     5   ar
     7     5     6   ar
     8     6     7    1
     9     7     8    1
    10     8     9   ar
    11     9    10   ar
    12    10    11   ar
    13    11    12   ar
    14    12    13   ar
    15    13    14   ar
    16    14    15   ar
    17    15    16   ar
    18    16    17   ar
    19    15    18    1
    20    18    19    1
    21    19    20    1
    22    21    20    1
    23    21    22    1
    24    22    23   am
    25    23    24    2
    26    23    25    1
    27    25    26    1
    28    26    27   ar
    29    27    28   ar
    30    28    29   ar
    31    29    30   ar
    32    30    31    1
    33    21    32    1
    34    32    33    2
    35     6     1   ar
    36    17     8   ar
    37    32    18   am
    38    31     4    1
    39    16    11   ar
    40    30    26   ar
    41    22    34    1
@<TRIPOS>MOLECULE
*****
 36 41 0 0 0
SMALL
GASTEIGER

@<TRIPOS>ATOM
      1 C         142.6470  135.8922  156.4990 C.ar    1  UNL1        0.1028
      2 C         142.1559  135.6874  155.0964 C.ar    1  UNL1        0.0131
      3 C         141.4510  136.7999  154.3787 C.ar    1  UNL1       -0.0015
      4 C         141.0756  138.2399  154.7770 C.ar    1  UNL1        0.0035
      5 C         141.7936  137.4827  155.8545 C.ar    1  UNL1        0.0358
      6 C         142.4331  137.2096  157.1836 C.ar    1  UNL1        0.1545
      7 O         142.9076  137.4576  158.5848 O.3     1  UNL1       -0.4528
      8 C         143.1530  138.1930  159.8688 C.ar    1  UNL1        0.1454
      9 C         143.8929  137.8219  161.3559 C.ar    1  UNL1        0.0375
     10 C         144.0760  138.6637  162.5838 C.ar    1  UNL1        0.0032
     11 C         143.5619  140.0726  162.6108 C.ar    1  UNL1        0.0014
     12 C         143.7651  140.8813  163.8577 C.ar    1  UNL1        0.0001
     13 C         143.2658  142.2942  163.9250 C.ar    1  UNL1        0.0013
     14 C         142.5634  142.8983  162.7452 C.ar    1  UNL1        0.0149
     15 C         142.3603  142.0897  161.4984 C.ar    1  UNL1        0.0539
     16 C         142.8596  140.6768  161.4311 C.ar    1  UNL1        0.0167
     17 C         143.1362  139.3167  160.8623 C.ar    1  UNL1        0.0387
     18 N         141.7059  143.3645  161.0550 N.am    1  UNL1       -0.2572
     19 C         141.4047  144.7385  161.5760 C.3     1  UNL1        0.1005
     20 C         140.6867  145.4957  160.4985 C.3     1  UNL1        0.0509
     21 C         140.2942  144.8531  158.9366 C.3     1  UNL1        0.1508
     22 N         139.7276  144.8659  157.5479 N.am    1  UNL1       -0.2980
     23 C         139.3614  144.3657  156.1819 C.2     1  UNL1        0.2288
     24 O         138.6815  145.5779  155.6176 O.2     1  UNL1       -0.2747
     25 C         139.2451  143.4201  155.0234 C.3     1  UNL1        0.1303
     26 C         139.3944  142.1566  154.2287 C.ar    1  UNL1        0.0670
     27 C         138.6964  142.7291  153.0308 C.ar    1  UNL1        0.1138
     28 N         138.6598  141.6723  151.9669 N.ar    1  UNL1       -0.2227
     29 C         139.3351  140.4468  152.5073 C.ar    1  UNL1        0.1786
     30 N         139.7891  140.7461  153.9053 N.ar    1  UNL1       -0.3078
     31 C         140.3759  139.3790  154.0966 C.3     1  UNL1        0.1341
     32 C         140.9848  144.3291  160.1608 C.2     1  UNL1        0.2473
     33 O         141.0341  144.8498  160.7624 O.2     1  UNL1       -0.2728
     34 H         139.3697  145.7821  157.5070 H       1  UNL1        0.1498
     35 N         144.0569  133.6671  157.9345 N.1     1  UNL1       -0.1907
     36 C         143.3519  134.7797  157.2167 C.1     1  UNL1        0.1035
@<TRIPOS>BOND
     1    35    36    3
     2    36     1    1
     3     1     2   ar
     4     2     3   ar
     5     3     4   ar
     6     4     5   ar
     7     5     6   ar
     8     6     7    1
     9     7     8    1
    10     8     9   ar
    11     9    10   ar
    12    10    11   ar
    13    11    12   ar
    14    12    13   ar
    15    13    14   ar
    16    14    15   ar
    17    15    16   ar
    18    16    17   ar
    19    15    18    1
    20    18    19    1
    21    19    20    1
    22    21    20    1
    23    21    22    1
    24    22    23   am
    25    23    24    2
    26    23    25    1
    27    25    26    1
    28    26    27   ar
    29    27    28   ar
    30    28    29   ar
    31    29    30   ar
    32    30    31    1
    33    21    32    1
    34    32    33    2
    35     6     1   ar
    36    17     8   ar
    37    32    18   am
    38    31     4    1
    39    16    11   ar
    40    30    26   ar
    41    22    34    1
@<TRIPOS>MOLECULE
*****
 36 41 0 0 0
SMALL
GASTEIGER

@<TRIPOS>ATOM
      1 C         142.6164  137.7945  157.5778 C.ar    1  UNL1        0.1028
      2 C         142.8297  138.3448  156.1988 C.ar    1  UNL1        0.0131
      3 C         142.5132  139.7817  155.9074 C.ar    1  UNL1       -0.0015
      4 C         141.9694  140.9368  156.7695 C.ar    1  UNL1        0.0035
      5 C         142.1253  139.6461  157.5176 C.ar    1  UNL1        0.0358
      6 C         142.0865  138.6813  158.6654 C.ar    1  UNL1        0.1545
      7 O         141.8583  138.1726  160.0580 O.3     1  UNL1       -0.4528
      8 C         141.4713  138.1889  161.5071 C.ar    1  UNL1        0.1454
      9 C         141.4508  137.0471  162.7690 C.ar    1  UNL1        0.0375
     10 C         141.0324  137.1941  164.2020 C.ar    1  UNL1        0.0032
     11 C         140.5370  138.5169  164.7068 C.ar    1  UNL1        0.0014
     12 C         140.1283  138.6222  166.1462 C.ar    1  UNL1        0.0001
     13 C         139.6274  139.9274  166.6899 C.ar    1  UNL1        0.0013
     14 C         139.5354  141.1272  165.7942 C.ar    1  UNL1        0.0149
     15 C         139.9441  141.0218  164.3549 C.ar    1  UNL1        0.0539
     16 C         140.4450  139.7166  163.8112 C.ar    1  UNL1        0.0167
     17 C         140.9780  138.7278  162.8171 C.ar    1  UNL1        0.0387
     18 N         139.5432  142.4670  164.3749 N.am    1  UNL1       -0.2572
     19 C         139.0101  143.4943  165.3291 C.3     1  UNL1        0.1005
     20 C         138.8542  144.7851  164.5809 C.3     1  UNL1        0.0509
     21 C         139.2367  145.0045  162.9041 C.3     1  UNL1        0.1508
     22 N         139.3726  145.7540  161.6120 N.am    1  UNL1       -0.2980
     23 C         139.6855  146.0045  160.1665 C.2     1  UNL1        0.2288
     24 O         139.3186  147.4545  160.0523 O.2     1  UNL1       -0.2747
     25 C         140.1332  145.7221  158.7630 C.3     1  UNL1        0.1303
     26 C         140.6553  144.9451  157.5910 C.ar    1  UNL1        0.0670
     27 C         140.5762  146.1244  156.6674 C.ar    1  UNL1        0.1138
     28 N         141.0532  145.6863  155.3145 N.ar    1  UNL1       -0.2227
     29 C         141.4271  144.2363  155.4018 C.ar    1  UNL1        0.1786
     30 N         141.1812  143.7782  156.8088 N.ar    1  UNL1       -0.3078
     31 C         141.6399  142.3791  156.5220 C.3     1  UNL1        0.1341
     32 C         139.2962  143.8572  163.8685 C.2     1  UNL1        0.2473
     33 O         139.0534  144.0320  164.6074 O.2     1  UNL1       -0.2728
     34 H         139.0563  146.6452  161.8857 H       1  UNL1        0.1498
     35 N         143.2493  134.9205  158.1606 N.1     1  UNL1       -0.1907
     36 C         142.9329  136.3575  157.8692 C.1     1  UNL1        0.1035
@<TRIPOS>BOND
     1    35    36    3
     2    36     1    1
     3     1     2   ar
     4     2     3   ar
     5     3     4   ar
     6     4     5   ar
     7     5     6   ar
     8     6     7    1
     9     7     8    1
    10     8     9   ar
    11     9    10   ar
    12    10    11   ar
    13    11    12   ar
    14    12    13   ar
    15    13    14   ar
    16    14    15   ar
    17    15    16   ar
    18    16    17   ar
    19    15    18    1
    20    18    19    1
    21    19    20    1
    22    21    20    1
    23    21    22    1
    24    22    23   am
    25    23    24    2
    26    23    25    1
    27    25    26    1
    28    26    27   ar
    29    27    28   ar
    30    28    29   ar
    31    29    30   ar
    32    30    31    1
    33    21    32    1
    34    32    33    2
    35     6     1   ar
    36    17     8   ar
    37    32    18   am
    38    31     4    1
    39    16    11   ar
    40    30    26   ar
    41    22    34    1
@<TRIPOS>MOLECULE
*****
 36 41 0 0 0
SMALL
GASTEIGER

@<TRIPOS>ATOM
      1 C         143.5388  140.6244  161.2483 C.ar    1  UNL1        0.1028
      2 C         144.0317  139.2256  161.4737 C.ar    1  UNL1        0.0131
      3 C         143.7506  138.1586  160.4577 C.ar    1  UNL1       -0.0015
      4 C         143.0052  138.1572  159.1095 C.ar    1  UNL1        0.0035
      5 C         143.0273  139.4956  159.7863 C.ar    1  UNL1        0.0358
      6 C         142.7649  140.9559  160.0069 C.ar    1  UNL1        0.1545
      7 O         142.2535  142.3409  159.7415 O.3     1  UNL1       -0.4528
      8 C         141.5623  143.4634  159.0259 C.ar    1  UNL1        0.1454
      9 C         141.2975  145.1161  159.3336 C.ar    1  UNL1        0.0375
     10 C         140.5757  146.1496  158.5206 C.ar    1  UNL1        0.0032
     11 C         139.9508  145.7712  157.2106 C.ar    1  UNL1        0.0014
     12 C         139.2381  146.8341  156.4280 C.ar    1  UNL1        0.0001
     13 C         138.5998  146.4963  155.1132 C.ar    1  UNL1        0.0013
     14 C         138.6741  145.0958  154.5812 C.ar    1  UNL1        0.0149
     15 C         139.3868  144.0330  155.3638 C.ar    1  UNL1        0.0539
     16 C         140.0251  144.3707  156.6786 C.ar    1  UNL1        0.0167
     17 C         140.7845  144.1719  157.9568 C.ar    1  UNL1        0.0387
     18 N         138.9557  143.2043  154.1902 N.am    1  UNL1       -0.2572
     19 C         138.2040  143.3495  152.9003 C.3     1  UNL1        0.1005
     20 C         138.1820  142.0111  152.2235 C.3     1  UNL1        0.0509
     21 C         138.9124  140.5730  152.8597 C.3     1  UNL1        0.1508
     22 N         139.3059  139.1258  152.8825 N.am    1  UNL1       -0.2980
     23 C         139.9176  137.8503  153.3814 C.2     1  UNL1        0.2288
     24 O         139.5488  136.9140  152.2690 O.2     1  UNL1       -0.2747
     25 C         140.6649  136.9189  154.2892 C.3     1  UNL1        0.1303
     26 C         141.4468  136.4573  155.4832 C.ar    1  UNL1        0.0670
     27 C         141.5404  135.0470  154.9812 C.ar    1  UNL1        0.1138
     28 N         142.3091  134.2460  155.9898 N.ar    1  UNL1       -0.2227
     29 C         142.6907  135.1613  157.1153 C.ar    1  UNL1        0.1786
     30 N         142.1578  136.5280  156.8022 N.ar    1  UNL1       -0.3078
     31 C         142.7017  137.1213  158.0679 C.3     1  UNL1        0.1341
     32 C         138.7901  141.9966  153.3161 C.2     1  UNL1        0.2473
     33 O         138.3891  142.4717  152.8172 O.2     1  UNL1       -0.2728
     34 H         138.9163  138.8190  152.0320 H       1  UNL1        0.1498
     35 N         144.1010  142.7585  163.2804 N.1     1  UNL1       -0.1907
     36 C         143.8199  141.6914  162.2643 C.1     1  UNL1        0.1035
@<TRIPOS>BOND
     1    35    36    3
     2    36     1    1
     3     1     2   ar
     4     2     3   ar
     5     3     4   ar
     6     4     5   ar
     7     5     6   ar
     8     6     7    1
     9     7     8    1
    10     8     9   ar
    11     9    10   ar
    12    10    11   ar
    13    11    12   ar
    14    12    13   ar
    15    13    14   ar
    16    14    15   ar
    17    15    16   ar
    18    16    17   ar
    19    15    18    1
    20    18    19    1
    21    19    20    1
    22    21    20    1
    23    21    22    1
    24    22    23   am
    25    23    24    2
    26    23    25    1
    27    25    26    1
    28    26    27   ar
    29    27    28   ar
    30    28    29   ar
    31    29    30   ar
    32    30    31    1
    33    21    32    1
    34    32    33    2
    35     6     1   ar
    36    17     8   ar
    37    32    18   am
    38    31     4    1
    39    16    11   ar
    40    30    26   ar
    41    22    34    1
@<TRIPOS>MOLECULE
*****
 36 41 0 0 0
SMALL
GASTEIGER

@<TRIPOS>ATOM
      1 C         143.3180  139.3865  155.5095 C.ar    1  UNL1        0.1028
      2 C         143.0349  140.0737  154.2065 C.ar    1  UNL1        0.0131
      3 C         142.3635  141.4150  154.1964 C.ar    1  UNL1       -0.0015
      4 C         141.8463  142.3431  155.3119 C.ar    1  UNL1        0.0035
      5 C         142.4593  141.0717  155.8195 C.ar    1  UNL1        0.0358
      6 C         142.9297  140.0407  156.8023 C.ar    1  UNL1        0.1545
      7 O         143.1938  139.3894  158.1274 O.3     1  UNL1       -0.4528
      8 C         143.2161  139.2057  159.6159 C.ar    1  UNL1        0.1454
      9 C         143.7707  137.9989  160.6801 C.ar    1  UNL1        0.0375
     10 C         143.7320  137.9358  162.1783 C.ar    1  UNL1        0.0032
     11 C         143.1298  139.0647  162.9612 C.ar    1  UNL1        0.0014
     12 C         143.1106  138.9631  164.4577 C.ar    1  UNL1        0.0001
     13 C         142.5173  140.0707  165.2770 C.ar    1  UNL1        0.0013
     14 C         141.9434  141.2799  164.5999 C.ar    1  UNL1        0.0149
     15 C         141.9626  141.3815  163.1035 C.ar    1  UNL1        0.0539
     16 C         142.5559  140.2738  162.2842 C.ar    1  UNL1        0.0167
     17 C         142.9934  139.5144  161.0668 C.ar    1  UNL1        0.0387
     18 N         141.2938  142.6876  163.4142 N.am    1  UNL1       -0.2572
     19 C         140.8377  143.4874  164.5983 C.3     1  UNL1        0.1005
     20 C         140.2246  144.7587  164.0906 C.3     1  UNL1        0.0509
     21 C         140.0886  145.1871  162.4160 C.3     1  UNL1        0.1508
     22 N         139.7150  146.0428  161.2421 N.am    1  UNL1       -0.2980
     23 C         139.5693  146.4676  159.8109 C.2     1  UNL1        0.2288
     24 O         138.8955  147.7964  159.9850 O.2     1  UNL1       -0.2747
     25 C         139.6712  146.4040  158.3157 C.3     1  UNL1        0.1303
     26 C         140.0070  145.8607  156.9585 C.ar    1  UNL1        0.0670
     27 C         139.4420  147.0552  156.2487 C.ar    1  UNL1        0.1138
     28 N         139.6170  146.8437  154.7740 N.ar    1  UNL1       -0.2227
     29 C         140.2903  145.5185  154.5725 C.ar    1  UNL1        0.1786
     30 N         140.5313  144.9110  155.9226 N.ar    1  UNL1       -0.3078
     31 C         141.1733  143.6832  155.3478 C.3     1  UNL1        0.1341
     32 C         140.6396  144.0160  163.1742 C.2     1  UNL1        0.2473
     33 O         140.5739  144.0731  163.9666 O.2     1  UNL1       -0.2728
     34 H         139.3079  146.8124  161.7016 H       1  UNL1        0.1498
     35 N         144.6609  136.7039  155.5298 N.1     1  UNL1       -0.1907
     36 C         143.9894  138.0453  155.5197 C.1     1  UNL1        0.1035
@<TRIPOS>BOND
     1    35    36    3
     2    36     1    1
     3     1     2   ar
     4     2     3   ar
     5     3     4   ar
     6     4     5   ar
     7     5     6   ar
     8     6     7    1
     9     7     8    1
    10     8     9   ar
    11     9    10   ar
    12    10    11   ar
    13    11    12   ar
    14    12    13   ar
    15    13    14   ar
    16    14    15   ar
    17    15    16   ar
    18    16    17   ar
    19    15    18    1
    20    18    19    1
    21    19    20    1
    22    21    20    1
    23    21    22    1
    24    22    23   am
    25    23    24    2
    26    23    25    1
    27    25    26    1
    28    26    27   ar
    29    27    28   ar
    30    28    29   ar
    31    29    30   ar
    32    30    31    1
    33    21    32    1
    34    32    33    2
    35     6     1   ar
    36    17     8   ar
    37    32    18   am
    38    31     4    1
    39    16    11   ar
    40    30    26   ar
    41    22    34    1
@<TRIPOS>MOLECULE
*****
 36 41 0 0 0
SMALL
GASTEIGER

@<TRIPOS>ATOM
      1 C         138.5773  143.0852  154.9684 C.ar    1  UNL1        0.1028
      2 C         138.3342  142.1841  153.7940 C.ar    1  UNL1        0.0131
      3 C         138.8619  140.7801  153.8040 C.ar    1  UNL1       -0.0015
      4 C         139.6712  139.9657  154.8311 C.ar    1  UNL1        0.0035
      5 C         139.3681  141.3663  155.2743 C.ar    1  UNL1        0.0358
      6 C         139.3482  142.5820  156.1527 C.ar    1  UNL1        0.1545
      7 O         139.6144  143.4487  157.3478 O.3     1  UNL1       -0.4528
      8 C         140.1306  143.8492  158.6979 C.ar    1  UNL1        0.1454
      9 C         140.0733  145.2602  159.6479 C.ar    1  UNL1        0.0375
     10 C         140.6411  145.5359  161.0086 C.ar    1  UNL1        0.0032
     11 C         141.3984  144.4650  161.7363 C.ar    1  UNL1        0.0014
     12 C         141.9503  144.7808  163.0949 C.ar    1  UNL1        0.0001
     13 C         142.7136  143.7372  163.8555 C.ar    1  UNL1        0.0013
     14 C         142.9250  142.3780  163.2573 C.ar    1  UNL1        0.0149
     15 C         142.3732  142.0622  161.8988 C.ar    1  UNL1        0.0539
     16 C         141.6099  143.1058  161.1383 C.ar    1  UNL1        0.0167
     17 C         140.8271  143.7295  160.0210 C.ar    1  UNL1        0.0387
     18 N         143.0139  140.7398  162.1999 N.am    1  UNL1       -0.2572
     19 C         143.7996  140.0693  163.2875 C.3     1  UNL1        0.1005
     20 C         144.1027  138.6687  162.8443 C.3     1  UNL1        0.0509
     21 C         143.6099  137.9863  161.3285 C.3     1  UNL1        0.1508
     22 N         143.4846  136.9272  160.2739 N.am    1  UNL1       -0.2980
     23 C         143.0867  136.2825  158.9792 C.2     1  UNL1        0.2288
     24 O         143.6824  134.9173  159.1564 O.2     1  UNL1       -0.2747
     25 C         142.4698  136.1397  157.6194 C.3     1  UNL1        0.1303
     26 C         141.7174  136.5178  156.3781 C.ar    1  UNL1        0.0670
     27 C         141.9100  135.1693  155.7501 C.ar    1  UNL1        0.1138
     28 N         141.2427  135.1840  154.4068 N.ar    1  UNL1       -0.2227
     29 C         140.6375  136.5416  154.2046 C.ar    1  UNL1        0.1786
     30 N         140.9309  137.3659  155.4229 N.ar    1  UNL1       -0.3078
     31 C         140.2167  138.5694  154.8830 C.3     1  UNL1        0.1341
     32 C         143.4456  139.3171  162.0008 C.2     1  UNL1        0.2473
     33 O         143.7818  139.3684  162.7218 O.2     1  UNL1       -0.2728
     34 H         143.9715  136.1866  160.7025 H       1  UNL1        0.1498
     35 N         137.5219  145.8933  154.9485 N.1     1  UNL1       -0.1907
     36 C         138.0496  144.4892  154.9584 C.1     1  UNL1        0.1035
@<TRIPOS>BOND
     1    35    36    3
     2    36     1    1
     3     1     2   ar
     4     2     3   ar
     5     3     4   ar
     6     4     5   ar
     7     5     6   ar
     8     6     7    1
     9     7     8    1
    10     8     9   ar
    11     9    10   ar
    12    10    11   ar
    13    11    12   ar
    14    12    13   ar
    15    13    14   ar
    16    14    15   ar
    17    15    16   ar
    18    16    17   ar
    19    15    18    1
    20    18    19    1
    21    19    20    1
    22    21    20    1
    23    21    22    1
    24    22    23   am
    25    23    24    2
    26    23    25    1
    27    25    26    1
    28    26    27   ar
    29    27    28   ar
    30    28    29   ar
    31    29    30   ar
    32    30    31    1
    33    21    32    1
    34    32    33    2
    35     6     1   ar
    36    17     8   ar
    37    32    18   am
    38    31     4    1
    39    16    11   ar
    40    30    26   ar
    41    22    34    1
@<TRIPOS>MOLECULE
*****
 36 41 0 0 0
SMALL
GASTEIGER

@<TRIPOS>ATOM
      1 C         146.1639  142.7011  156.9755 C.ar    1  UNL1        0.1028
      2 C         145.9975  142.7587  155.4859 C.ar    1  UNL1        0.0131
      3 C         144.6586  142.4806  154.8695 C.ar    1  UNL1       -0.0015
      4 C         143.2828  142.1151  155.4584 C.ar    1  UNL1        0.0035
      5 C         144.3525  142.3019  156.4931 C.ar    1  UNL1        0.0358
      6 C         144.9914  142.3653  157.8487 C.ar    1  UNL1        0.1545
      7 O         145.1131  142.2967  159.3423 O.3     1  UNL1       -0.4528
      8 C         144.7012  142.1054  160.7718 C.ar    1  UNL1        0.1454
      9 C         145.4836  142.1929  162.2807 C.ar    1  UNL1        0.0375
     10 C         144.9471  141.9750  163.6644 C.ar    1  UNL1        0.0032
     11 C         143.5034  141.6188  163.8616 C.ar    1  UNL1        0.0014
     12 C         143.0061  141.4092  165.2612 C.ar    1  UNL1        0.0001
     13 C         141.5691  141.0519  165.5009 C.ar    1  UNL1        0.0013
     14 C         140.6295  140.9042  164.3410 C.ar    1  UNL1        0.0149
     15 C         141.1267  141.1138  162.9415 C.ar    1  UNL1        0.0539
     16 C         142.5637  141.4711  162.7018 C.ar    1  UNL1        0.0167
     17 C         143.8114  141.8172  161.9444 C.ar    1  UNL1        0.0387
     18 N         139.6946  140.7936  162.6312 N.am    1  UNL1       -0.2572
     19 C         138.4198  140.4442  163.3403 C.3     1  UNL1        0.1005
     20 C         137.3500  140.2574  162.3056 C.3     1  UNL1        0.0509
     21 C         137.5915  140.4263  160.5969 C.3     1  UNL1        0.1508
     22 N         137.2046  140.4290  159.1478 N.am    1  UNL1       -0.2980
     23 C         137.3522  140.5611  157.6609 C.2     1  UNL1        0.2288
     24 O         135.9520  140.2572  157.2168 O.2     1  UNL1       -0.2747
     25 C         138.0143  140.8050  156.3372 C.3     1  UNL1        0.1303
     26 C         139.1016  141.1276  155.3555 C.ar    1  UNL1        0.0670
     27 C         138.1897  140.9880  154.1727 C.ar    1  UNL1        0.1138
     28 N         138.9918  141.2596  152.9346 N.ar    1  UNL1       -0.2227
     29 C         140.3993  141.5670  153.3521 C.ar    1  UNL1        0.1786
     30 N         140.4672  141.4854  154.8484 N.ar    1  UNL1       -0.3078
     31 C         141.9266  141.8301  154.8842 C.3     1  UNL1        0.1341
     32 C         138.4606  140.5536  161.8129 C.2     1  UNL1        0.2473
     33 O         138.0862  140.4195  162.5038 O.2     1  UNL1       -0.2728
     34 H         136.2500  140.1976  159.2150 H       1  UNL1        0.1498
     35 N         148.8418  143.2573  158.2084 N.1     1  UNL1       -0.1907
     36 C         147.5028  142.9792  157.5919 C.1     1  UNL1        0.1035
@<TRIPOS>BOND
     1    35    36    3
     2    36     1    1
     3     1     2   ar
     4     2     3   ar
     5     3     4   ar
     6     4     5   ar
     7     5     6   ar
     8     6     7    1
     9     7     8    1
    10     8     9   ar
    11     9    10   ar
    12    10    11   ar
    13    11    12   ar
    14    12    13   ar
    15    13    14   ar
    16    14    15   ar
    17    15    16   ar
    18    16    17   ar
    19    15    18    1
    20    18    19    1
    21    19    20    1
    22    21    20    1
    23    21    22    1
    24    22    23   am
    25    23    24    2
    26    23    25    1
    27    25    26    1
    28    26    27   ar
    29    27    28   ar
    30    28    29   ar
    31    29    30   ar
    32    30    31    1
    33    21    32    1
    34    32    33    2
    35     6     1   ar
    36    17     8   ar
    37    32    18   am
    38    31     4    1
    39    16    11   ar
    40    30    26   ar
    41    22    34    1
