@<TRIPOS>MOLECULE
*****
 33 36 0 0 0
SMALL
GASTEIGER

@<TRIPOS>ATOM
      1 C         141.7467  139.9236  163.0177 C.2     1  UNL1        0.1399
      2 C         142.4420  140.4704  161.8064 C.2     1  UNL1        0.1355
      3 N         142.0661  141.8204  161.2713 N.pl3   1  UNL1       -0.1998
      4 C         140.9949  142.6235  161.9476 C.2     1  UNL1        0.3442
      5 N         140.2996  142.0767  163.1589 N.2     1  UNL1       -0.0578
      6 C         140.6755  140.7267  163.6940 C.3     1  UNL1        0.2746
      7 H         142.5225  142.1793  160.4762 H       1  UNL1        0.2983
      8 C         139.9801  140.1798  164.9054 C.ar    1  UNL1        0.1000
      9 C         140.4965  140.5026  166.2762 C.ar    1  UNL1        0.0064
     10 C         139.8012  139.9558  167.4876 C.ar    1  UNL1        0.0002
     11 C         138.5893  139.0862  167.3282 C.ar    1  UNL1        0.0063
     12 C         138.0729  138.7635  165.9574 C.ar    1  UNL1        0.0751
     13 C         138.7683  139.3103  164.7460 C.ar    1  UNL1        0.2903
     14 N         138.2519  138.9875  163.3752 N.pl3   1  UNL1        0.0807
     15 O         138.4187  137.6053  162.8171 O.2     1  UNL1        0.0415
     16 O         137.5685  140.0471  162.5624 O.co2   1  UNL1       -0.5760
     17 C         140.6190  143.9735  161.4125 C.ar    1  UNL1        0.1931
     18 N         140.8073  144.4464  160.0015 N.ar    1  UNL1       -0.2297
     19 C         140.2935  145.8527  159.9115 C.ar    1  UNL1        0.1067
     20 C         139.7876  146.2491  161.2668 C.ar    1  UNL1        0.0577
     21 S         139.9888  145.0876  162.1945 S.2     1  UNL1       -0.0586
     22 C         142.1226  138.5736  163.5528 C.2     1  UNL1        0.3447
     23 O         141.5396  137.3350  162.9398 O.2     1  UNL1       -0.2450
     24 O         143.0815  138.4623  164.7008 O.3     1  UNL1       -0.4455
     25 C         145.2117  139.9017  164.3260 C.3     1  UNL1        0.0513
     26 C         143.9410  139.6329  165.0764 C.3     1  UNL1        0.2089
     27 C         143.5133  139.6673  161.1300 C.3     1  UNL1        0.1405
     28 N         143.3469  139.2495  159.6990 N.3     1  UNL1       -0.2617
     29 C         143.7493  140.1808  158.5942 C.3     1  UNL1        0.1050
     30 C         143.5828  139.7630  157.1631 C.3     1  UNL1        0.1595
     31 O         143.0139  138.4140  156.8370 O.3     1  UNL1       -0.3508
     32 C         142.6115  137.4827  157.9419 C.3     1  UNL1        0.1595
     33 C         142.7779  137.9004  159.3729 C.3     1  UNL1        0.1050
@<TRIPOS>UNITY_ATOM_ATTR
14 1
charge 1
16 1
charge -1
@<TRIPOS>BOND
     1    25    26    1
     2    26    24    1
     3    24    22    1
     4    22    23    2
     5    22     1    1
     6     1     2    2
     7     2    27    1
     8    27    28    1
     9    28    29    1
    10    29    30    1
    11    30    31    1
    12    31    32    1
    13    32    33    1
    14     2     3    1
    15     3     4    1
    16     4    17    1
    17    17    18   ar
    18    18    19   ar
    19    19    20   ar
    20    20    21   ar
    21     4     5    2
    22     5     6    1
    23     6     8    1
    24     8     9   ar
    25     9    10   ar
    26    10    11   ar
    27    11    12   ar
    28    12    13   ar
    29    13    14    1
    30    14    15    2
    31    14    16    1
    32     6     1    1
    33    13     8   ar
    34    33    28    1
    35    21    17   ar
    36     3     7    1
@<TRIPOS>MOLECULE
*****
 33 36 0 0 0
SMALL
GASTEIGER

@<TRIPOS>ATOM
      1 C         141.7211  143.3881  160.7346 C.2     1  UNL1        0.1399
      2 C         142.5748  143.4983  159.5062 C.2     1  UNL1        0.1355
      3 N         142.1405  144.3717  158.3667 N.pl3   1  UNL1       -0.1998
      4 C         140.8523  145.1351  158.4557 C.2     1  UNL1        0.3442
      5 N         139.9986  145.0250  159.6840 N.2     1  UNL1       -0.0578
      6 C         140.4330  144.1515  160.8235 C.3     1  UNL1        0.2746
      7 H         142.7008  144.4440  157.5605 H       1  UNL1        0.2983
      8 C         139.5791  144.0415  162.0519 C.ar    1  UNL1        0.1000
      9 C         139.8085  144.9667  163.2100 C.ar    1  UNL1        0.0064
     10 C         138.9547  144.8567  164.4384 C.ar    1  UNL1        0.0002
     11 C         137.8715  143.8213  164.5087 C.ar    1  UNL1        0.0063
     12 C         137.6422  142.8961  163.3505 C.ar    1  UNL1        0.0751
     13 C         138.4960  143.0061  162.1221 C.ar    1  UNL1        0.2903
     14 N         138.2667  142.0809  160.9640 N.pl3   1  UNL1        0.0807
     15 O         137.7558  142.6218  159.6616 O.2     1  UNL1        0.0415
     16 O         138.5483  140.6146  161.1083 O.co2   1  UNL1       -0.5760
     17 C         140.4180  146.0086  157.3162 C.ar    1  UNL1        0.1931
     18 N         139.3051  147.0138  157.3503 N.ar    1  UNL1       -0.2297
     19 C         139.2196  147.6567  155.9978 C.ar    1  UNL1        0.1067
     20 C         140.2796  147.0489  155.1277 C.ar    1  UNL1        0.0577
     21 S         141.0202  146.0303  155.9426 S.2     1  UNL1       -0.0586
     22 C         142.1554  142.5147  161.8740 C.2     1  UNL1        0.3447
     23 O         141.8781  141.0410  161.8373 O.2     1  UNL1       -0.2450
     24 O         142.8671  143.1148  163.0501 O.3     1  UNL1       -0.4455
     25 C         143.5694  145.4456  163.9580 C.3     1  UNL1        0.0513
     26 C         143.6335  144.3943  162.8900 C.3     1  UNL1        0.2089
     27 C         143.8630  142.7348  159.4172 C.3     1  UNL1        0.1405
     28 N         144.0051  141.6162  158.4281 N.3     1  UNL1       -0.2617
     29 C         145.0637  141.6828  157.3675 C.3     1  UNL1        0.1050
     30 C         145.2058  140.5640  156.3784 C.3     1  UNL1        0.1595
     31 O         144.2892  139.3788  156.4499 O.3     1  UNL1       -0.3508
     32 C         143.2306  139.3122  157.5105 C.3     1  UNL1        0.1595
     33 C         143.0885  140.4309  158.4996 C.3     1  UNL1        0.1050
@<TRIPOS>UNITY_ATOM_ATTR
14 1
charge 1
16 1
charge -1
@<TRIPOS>BOND
     1    25    26    1
     2    26    24    1
     3    24    22    1
     4    22    23    2
     5    22     1    1
     6     1     2    2
     7     2    27    1
     8    27    28    1
     9    28    29    1
    10    29    30    1
    11    30    31    1
    12    31    32    1
    13    32    33    1
    14     2     3    1
    15     3     4    1
    16     4    17    1
    17    17    18   ar
    18    18    19   ar
    19    19    20   ar
    20    20    21   ar
    21     4     5    2
    22     5     6    1
    23     6     8    1
    24     8     9   ar
    25     9    10   ar
    26    10    11   ar
    27    11    12   ar
    28    12    13   ar
    29    13    14    1
    30    14    15    2
    31    14    16    1
    32     6     1    1
    33    13     8   ar
    34    33    28    1
    35    21    17   ar
    36     3     7    1
@<TRIPOS>MOLECULE
*****
 33 36 0 0 0
SMALL
GASTEIGER

@<TRIPOS>ATOM
      1 C         141.4638  139.8644  164.1631 C.2     1  UNL1        0.1399
      2 C         142.2092  140.3687  162.9631 C.2     1  UNL1        0.1355
      3 N         141.8629  141.7027  162.3710 N.pl3   1  UNL1       -0.1998
      4 C         140.7712  142.5324  162.9790 C.2     1  UNL1        0.3442
      5 N         140.0258  142.0281  164.1790 N.2     1  UNL1       -0.0578
      6 C         140.3721  140.6941  164.7710 C.3     1  UNL1        0.2746
      7 H         142.3521  142.0336  161.5834 H       1  UNL1        0.2983
      8 C         139.6266  140.1899  165.9711 C.ar    1  UNL1        0.1000
      9 C         138.4700  139.2510  165.7956 C.ar    1  UNL1        0.0064
     10 C         137.7246  138.7468  166.9956 C.ar    1  UNL1        0.0002
     11 C         138.1357  139.1814  168.3712 C.ar    1  UNL1        0.0063
     12 C         139.2923  140.1202  168.5467 C.ar    1  UNL1        0.0751
     13 C         140.0378  140.6245  167.3466 C.ar    1  UNL1        0.2903
     14 N         141.1944  141.5634  167.5221 N.pl3   1  UNL1        0.0807
     15 O         142.5985  141.0360  167.5001 O.2     1  UNL1        0.0415
     16 O         140.9469  143.0296  167.7196 O.co2   1  UNL1       -0.5760
     17 C         140.4249  143.8664  162.3870 C.ar    1  UNL1        0.1931
     18 N         139.6910  144.9753  163.0811 N.ar    1  UNL1       -0.2297
     19 C         139.5642  146.1200  162.1200 C.ar    1  UNL1        0.1067
     20 C         140.2198  145.7186  160.8319 C.ar    1  UNL1        0.0577
     21 S         140.7517  144.3258  160.9970 S.2     1  UNL1       -0.0586
     22 C         141.8101  138.5304  164.7551 C.2     1  UNL1        0.3447
     23 O         142.9375  138.4159  165.7379 O.2     1  UNL1       -0.2450
     24 O         141.0290  137.3109  164.3643 O.3     1  UNL1       -0.4455
     25 C         138.9139  137.6154  162.8866 C.3     1  UNL1        0.0513
     26 C         140.3614  137.2459  163.0227 C.3     1  UNL1        0.2089
     27 C         143.3010  139.5389  162.3550 C.3     1  UNL1        0.1405
     28 N         143.3112  139.2791  160.8778 N.3     1  UNL1       -0.2617
     29 C         143.8649  140.3096  159.9389 C.3     1  UNL1        0.1050
     30 C         143.8752  140.0498  158.4615 C.3     1  UNL1        0.1595
     31 O         143.3318  138.7595  157.9231 O.3     1  UNL1       -0.3508
     32 C         142.7782  137.7290  158.8620 C.3     1  UNL1        0.1595
     33 C         142.7679  137.9888  160.3393 C.3     1  UNL1        0.1050
@<TRIPOS>UNITY_ATOM_ATTR
14 1
charge 1
16 1
charge -1
@<TRIPOS>BOND
     1    25    26    1
     2    26    24    1
     3    24    22    1
     4    22    23    2
     5    22     1    1
     6     1     2    2
     7     2    27    1
     8    27    28    1
     9    28    29    1
    10    29    30    1
    11    30    31    1
    12    31    32    1
    13    32    33    1
    14     2     3    1
    15     3     4    1
    16     4    17    1
    17    17    18   ar
    18    18    19   ar
    19    19    20   ar
    20    20    21   ar
    21     4     5    2
    22     5     6    1
    23     6     8    1
    24     8     9   ar
    25     9    10   ar
    26    10    11   ar
    27    11    12   ar
    28    12    13   ar
    29    13    14    1
    30    14    15    2
    31    14    16    1
    32     6     1    1
    33    13     8   ar
    34    33    28    1
    35    21    17   ar
    36     3     7    1
@<TRIPOS>MOLECULE
*****
 33 36 0 0 0
SMALL
GASTEIGER

@<TRIPOS>ATOM
      1 C         140.7308  140.3109  164.4170 C.2     1  UNL1        0.1399
      2 C         140.3400  140.2310  162.9711 C.2     1  UNL1        0.1355
      3 N         140.1540  141.4879  162.1738 N.pl3   1  UNL1       -0.1998
      4 C         140.3589  142.8247  162.8225 C.2     1  UNL1        0.3442
      5 N         140.7498  142.9046  164.2684 N.2     1  UNL1       -0.0578
      6 C         140.9358  141.6477  165.0657 C.3     1  UNL1        0.2746
      7 H         139.8975  141.4354  161.2248 H       1  UNL1        0.2983
      8 C         141.3267  141.7277  166.5117 C.ar    1  UNL1        0.1000
      9 C         140.2980  141.5037  167.5802 C.ar    1  UNL1        0.0064
     10 C         140.6888  141.5837  169.0261 C.ar    1  UNL1        0.0002
     11 C         142.1084  141.8877  169.4037 C.ar    1  UNL1        0.0063
     12 C         143.1371  142.1118  168.3352 C.ar    1  UNL1        0.0751
     13 C         142.7462  142.0318  166.8892 C.ar    1  UNL1        0.2903
     14 N         143.7748  142.2558  165.8207 N.pl3   1  UNL1        0.0807
     15 O         144.3237  143.6316  165.5847 O.2     1  UNL1        0.0415
     16 O         144.2547  141.1039  164.9882 O.co2   1  UNL1       -0.5760
     17 C         140.1730  144.0816  162.0252 C.ar    1  UNL1        0.1931
     18 N         140.5202  144.2671  160.5778 N.ar    1  UNL1       -0.2297
     19 C         140.1690  145.6738  160.1934 C.ar    1  UNL1        0.1067
     20 C         139.6047  146.3578  161.4033 C.ar    1  UNL1        0.0577
     21 S         139.6071  145.3737  162.5354 S.2     1  UNL1       -0.0586
     22 C         140.9168  139.0540  165.2143 C.2     1  UNL1        0.3447
     23 O         142.2949  138.6146  165.6113 O.2     1  UNL1       -0.2450
     24 O         139.7246  138.2365  165.6146 O.3     1  UNL1       -0.4455
     25 C         137.6122  138.5418  167.0961 C.3     1  UNL1        0.0513
     26 C         138.4096  138.9077  165.8794 C.3     1  UNL1        0.2089
     27 C         140.1350  138.8941  162.3223 C.3     1  UNL1        0.1405
     28 N         140.9580  138.5049  161.1302 N.3     1  UNL1       -0.2617
     29 C         140.4494  138.7790  159.7460 C.3     1  UNL1        0.1050
     30 C         141.2725  138.3897  158.5538 C.3     1  UNL1        0.1595
     31 O         142.6040  137.7264  158.7460 O.3     1  UNL1       -0.3508
     32 C         143.1126  137.4523  160.1303 C.3     1  UNL1        0.1595
     33 C         142.2896  137.8415  161.3224 C.3     1  UNL1        0.1050
@<TRIPOS>UNITY_ATOM_ATTR
14 1
charge 1
16 1
charge -1
@<TRIPOS>BOND
     1    25    26    1
     2    26    24    1
     3    24    22    1
     4    22    23    2
     5    22     1    1
     6     1     2    2
     7     2    27    1
     8    27    28    1
     9    28    29    1
    10    29    30    1
    11    30    31    1
    12    31    32    1
    13    32    33    1
    14     2     3    1
    15     3     4    1
    16     4    17    1
    17    17    18   ar
    18    18    19   ar
    19    19    20   ar
    20    20    21   ar
    21     4     5    2
    22     5     6    1
    23     6     8    1
    24     8     9   ar
    25     9    10   ar
    26    10    11   ar
    27    11    12   ar
    28    12    13   ar
    29    13    14    1
    30    14    15    2
    31    14    16    1
    32     6     1    1
    33    13     8   ar
    34    33    28    1
    35    21    17   ar
    36     3     7    1
@<TRIPOS>MOLECULE
*****
 33 36 0 0 0
SMALL
GASTEIGER

@<TRIPOS>ATOM
      1 C         141.9501  141.8358  163.8238 C.2     1  UNL1        0.1399
      2 C         141.6725  142.7618  164.9707 C.2     1  UNL1        0.1355
      3 N         141.6024  142.2236  166.3691 N.pl3   1  UNL1       -0.1998
      4 C         141.8100  140.7595  166.6205 C.2     1  UNL1        0.3442
      5 N         142.0876  139.8336  165.4736 N.2     1  UNL1       -0.0578
      6 C         142.1576  140.3717  164.0752 C.3     1  UNL1        0.2746
      7 H         141.4202  142.8314  167.1218 H       1  UNL1        0.2983
      8 C         142.4353  139.4457  162.9283 C.ar    1  UNL1        0.1000
      9 C         141.2975  138.8287  162.1702 C.ar    1  UNL1        0.0064
     10 C         141.5750  137.9027  161.0233 C.ar    1  UNL1        0.0002
     11 C         142.9905  137.5936  160.6344 C.ar    1  UNL1        0.0063
     12 C         144.1283  138.2106  161.3925 C.ar    1  UNL1        0.0751
     13 C         143.8506  139.1367  162.5395 C.ar    1  UNL1        0.2903
     14 N         144.9884  139.7537  163.2976 N.pl3   1  UNL1        0.0807
     15 O         145.6365  141.0071  162.7888 O.2     1  UNL1        0.0415
     16 O         145.4782  139.1172  164.5645 O.co2   1  UNL1       -0.5760
     17 C         141.7400  140.2214  168.0189 C.ar    1  UNL1        0.1931
     18 N         142.8029  139.4190  168.7091 N.ar    1  UNL1       -0.2297
     19 C         142.3146  139.0928  170.0894 C.ar    1  UNL1        0.1067
     20 C         140.9499  139.6937  170.2523 C.ar    1  UNL1        0.0577
     21 S         140.5948  140.3912  168.9727 S.2     1  UNL1       -0.0586
     22 C         142.0201  142.3740  162.4254 C.2     1  UNL1        0.3447
     23 O         140.8264  142.2739  161.5226 O.2     1  UNL1       -0.2450
     24 O         143.2838  143.0122  161.9298 O.3     1  UNL1       -0.4455
     25 C         143.7577  141.5847  159.8113 C.3     1  UNL1        0.0513
     26 C         143.6489  142.9243  160.4775 C.3     1  UNL1        0.2089
     27 C         141.4649  144.2260  164.7193 C.3     1  UNL1        0.1405
     28 N         140.3716  144.6812  163.7986 N.3     1  UNL1       -0.2617
     29 C         140.6655  145.6865  162.7248 C.3     1  UNL1        0.1050
     30 C         139.5722  146.1418  161.8042 C.3     1  UNL1        0.1595
     31 O         138.1851  145.5918  161.9574 O.3     1  UNL1       -0.3508
     32 C         137.8913  144.5865  163.0312 C.3     1  UNL1        0.1595
     33 C         138.9845  144.1312  163.9518 C.3     1  UNL1        0.1050
@<TRIPOS>UNITY_ATOM_ATTR
14 1
charge 1
16 1
charge -1
@<TRIPOS>BOND
     1    25    26    1
     2    26    24    1
     3    24    22    1
     4    22    23    2
     5    22     1    1
     6     1     2    2
     7     2    27    1
     8    27    28    1
     9    28    29    1
    10    29    30    1
    11    30    31    1
    12    31    32    1
    13    32    33    1
    14     2     3    1
    15     3     4    1
    16     4    17    1
    17    17    18   ar
    18    18    19   ar
    19    19    20   ar
    20    20    21   ar
    21     4     5    2
    22     5     6    1
    23     6     8    1
    24     8     9   ar
    25     9    10   ar
    26    10    11   ar
    27    11    12   ar
    28    12    13   ar
    29    13    14    1
    30    14    15    2
    31    14    16    1
    32     6     1    1
    33    13     8   ar
    34    33    28    1
    35    21    17   ar
    36     3     7    1
@<TRIPOS>MOLECULE
*****
 33 36 0 0 0
SMALL
GASTEIGER

@<TRIPOS>ATOM
      1 C         141.5781  139.6871  161.4880 C.2     1  UNL1        0.1399
      2 C         142.1195  139.8219  160.0956 C.2     1  UNL1        0.1355
      3 N         142.0175  141.1334  159.3749 N.pl3   1  UNL1       -0.1998
      4 C         141.3741  142.3102  160.0466 C.2     1  UNL1        0.3442
      5 N         140.8328  142.1755  161.4389 N.2     1  UNL1       -0.0578
      6 C         140.9347  140.8639  162.1596 C.3     1  UNL1        0.2746
      7 H         142.3729  141.2219  158.4610 H       1  UNL1        0.2983
      8 C         140.3933  140.7292  163.5520 C.ar    1  UNL1        0.1000
      9 C         141.3117  140.8651  164.7302 C.ar    1  UNL1        0.0064
     10 C         140.7703  140.7303  166.1226 C.ar    1  UNL1        0.0002
     11 C         139.3105  140.4597  166.3368 C.ar    1  UNL1        0.0063
     12 C         138.3922  140.3238  165.1587 C.ar    1  UNL1        0.0751
     13 C         138.9336  140.4586  163.7662 C.ar    1  UNL1        0.2903
     14 N         138.0152  140.3227  162.5880 N.pl3   1  UNL1        0.0807
     15 O         137.7734  138.9742  161.9772 O.2     1  UNL1        0.0415
     16 O         137.3386  141.5353  162.0207 O.co2   1  UNL1       -0.5760
     17 C         141.2722  143.6218  159.3259 C.ar    1  UNL1        0.1931
     18 N         142.4157  144.4009  158.7468 N.ar    1  UNL1       -0.2297
     19 C         141.8590  145.6452  158.1208 C.ar    1  UNL1        0.1067
     20 C         140.3714  145.6351  158.3129 C.ar    1  UNL1        0.0577
     21 S         140.0087  144.3846  159.0577 S.2     1  UNL1       -0.0586
     22 C         141.6801  138.3755  162.2086 C.2     1  UNL1        0.3447
     23 O         140.5704  137.3722  162.1007 O.2     1  UNL1       -0.2450
     24 O         142.8918  138.0673  163.0373 O.3     1  UNL1       -0.4455
     25 C         144.7157  139.4166  164.3035 C.3     1  UNL1        0.0513
     26 C         144.0704  138.9950  163.0166 C.3     1  UNL1        0.2089
     27 C         142.7629  138.6450  159.4239 C.3     1  UNL1        0.1405
     28 N         142.0560  137.9424  158.3030 N.3     1  UNL1       -0.2617
     29 C         140.6249  138.2707  157.9960 C.3     1  UNL1        0.1050
     30 C         139.9180  137.5680  156.8750 C.3     1  UNL1        0.1595
     31 O         140.6421  136.5370  156.0611 O.3     1  UNL1       -0.3508
     32 C         142.0732  136.2086  156.3680 C.3     1  UNL1        0.1595
     33 C         142.7801  136.9113  157.4889 C.3     1  UNL1        0.1050
@<TRIPOS>UNITY_ATOM_ATTR
14 1
charge 1
16 1
charge -1
@<TRIPOS>BOND
     1    25    26    1
     2    26    24    1
     3    24    22    1
     4    22    23    2
     5    22     1    1
     6     1     2    2
     7     2    27    1
     8    27    28    1
     9    28    29    1
    10    29    30    1
    11    30    31    1
    12    31    32    1
    13    32    33    1
    14     2     3    1
    15     3     4    1
    16     4    17    1
    17    17    18   ar
    18    18    19   ar
    19    19    20   ar
    20    20    21   ar
    21     4     5    2
    22     5     6    1
    23     6     8    1
    24     8     9   ar
    25     9    10   ar
    26    10    11   ar
    27    11    12   ar
    28    12    13   ar
    29    13    14    1
    30    14    15    2
    31    14    16    1
    32     6     1    1
    33    13     8   ar
    34    33    28    1
    35    21    17   ar
    36     3     7    1
@<TRIPOS>MOLECULE
*****
 33 36 0 0 0
SMALL
GASTEIGER

@<TRIPOS>ATOM
      1 C         142.2180  141.7174  163.6854 C.2     1  UNL1        0.1399
      2 C         141.9693  142.6623  164.8234 C.2     1  UNL1        0.1355
      3 N         141.8652  142.1377  166.2249 N.pl3   1  UNL1       -0.1998
      4 C         142.0099  140.6682  166.4882 C.2     1  UNL1        0.3442
      5 N         142.2586  139.7232  165.3502 N.2     1  UNL1       -0.0578
      6 C         142.3626  140.2478  163.9488 C.3     1  UNL1        0.2746
      7 H         141.7020  142.7579  166.9718 H       1  UNL1        0.2983
      8 C         142.6113  139.3027  162.8107 C.ar    1  UNL1        0.1000
      9 C         144.0167  138.9665  162.4086 C.ar    1  UNL1        0.0064
     10 C         144.2655  138.0215  161.2706 C.ar    1  UNL1        0.0002
     11 C         143.1088  137.4127  160.5347 C.ar    1  UNL1        0.0063
     12 C         141.7034  137.7489  160.9369 C.ar    1  UNL1        0.0751
     13 C         141.4547  138.6940  162.0749 C.ar    1  UNL1        0.2903
     14 N         140.0492  139.0302  162.4771 N.pl3   1  UNL1        0.0807
     15 O         139.4952  138.5123  163.7713 O.2     1  UNL1        0.0415
     16 O         139.1978  139.8843  161.5851 O.co2   1  UNL1       -0.5760
     17 C         141.9058  140.1436  167.8897 C.ar    1  UNL1        0.1931
     18 N         142.9162  139.2803  168.5852 N.ar    1  UNL1       -0.2297
     19 C         142.4080  138.9933  169.9670 C.ar    1  UNL1        0.1067
     20 C         141.0834  139.6792  170.1255 C.ar    1  UNL1        0.0577
     21 S         140.7731  140.3901  168.8416 S.2     1  UNL1       -0.0586
     22 C         142.3220  142.2420  162.2840 C.2     1  UNL1        0.3447
     23 O         141.0982  142.3221  161.4204 O.2     1  UNL1       -0.2450
     24 O         143.6498  142.6864  161.7462 O.3     1  UNL1       -0.4455
     25 C         143.7690  141.2778  159.5664 C.3     1  UNL1        0.0513
     26 C         143.9347  142.5885  160.2768 C.3     1  UNL1        0.2089
     27 C         141.8246  144.1320  164.5601 C.3     1  UNL1        0.1405
     28 N         140.6827  144.6360  163.7283 N.3     1  UNL1       -0.2617
     29 C         140.9254  145.6702  162.6693 C.3     1  UNL1        0.1050
     30 C         139.7834  146.1743  161.8375 C.3     1  UNL1        0.1595
     31 O         138.3988  145.6441  162.0647 O.3     1  UNL1       -0.3508
     32 C         138.1560  144.6099  163.1237 C.3     1  UNL1        0.1595
     33 C         139.2980  144.1058  163.9555 C.3     1  UNL1        0.1050
@<TRIPOS>UNITY_ATOM_ATTR
14 1
charge 1
16 1
charge -1
@<TRIPOS>BOND
     1    25    26    1
     2    26    24    1
     3    24    22    1
     4    22    23    2
     5    22     1    1
     6     1     2    2
     7     2    27    1
     8    27    28    1
     9    28    29    1
    10    29    30    1
    11    30    31    1
    12    31    32    1
    13    32    33    1
    14     2     3    1
    15     3     4    1
    16     4    17    1
    17    17    18   ar
    18    18    19   ar
    19    19    20   ar
    20    20    21   ar
    21     4     5    2
    22     5     6    1
    23     6     8    1
    24     8     9   ar
    25     9    10   ar
    26    10    11   ar
    27    11    12   ar
    28    12    13   ar
    29    13    14    1
    30    14    15    2
    31    14    16    1
    32     6     1    1
    33    13     8   ar
    34    33    28    1
    35    21    17   ar
    36     3     7    1
@<TRIPOS>MOLECULE
*****
 33 36 0 0 0
SMALL
GASTEIGER

@<TRIPOS>ATOM
      1 C         139.2097  141.5280  160.7871 C.2     1  UNL1        0.1399
      2 C         139.3185  141.0006  159.3871 C.2     1  UNL1        0.1355
      3 N         139.4963  141.9501  158.2396 N.pl3   1  UNL1       -0.1998
      4 C         139.5652  143.4271  158.4921 C.2     1  UNL1        0.3442
      5 N         139.4564  143.9545  159.8921 N.2     1  UNL1       -0.0578
      6 C         139.2786  143.0050  161.0396 C.3     1  UNL1        0.2746
      7 H         139.5677  141.6040  157.3208 H       1  UNL1        0.2983
      8 C         139.1698  143.5325  162.4396 C.ar    1  UNL1        0.1000
      9 C         137.8207  143.7180  163.0684 C.ar    1  UNL1        0.0064
     10 C         137.7118  144.2455  164.4683 C.ar    1  UNL1        0.0002
     11 C         138.9522  144.5874  165.2396 C.ar    1  UNL1        0.0063
     12 C         140.3013  144.4019  164.6108 C.ar    1  UNL1        0.0751
     13 C         140.4101  143.8744  163.2107 C.ar    1  UNL1        0.2903
     14 N         141.7593  143.6889  162.5819 N.pl3   1  UNL1        0.0807
     15 O         142.3137  144.7438  161.6710 O.2     1  UNL1        0.0415
     16 O         142.5540  142.4483  162.8641 O.co2   1  UNL1       -0.5760
     17 C         139.7429  144.3767  157.3446 C.ar    1  UNL1        0.1931
     18 N         139.2304  144.1787  155.9488 N.ar    1  UNL1       -0.2297
     19 C         139.6351  145.3706  155.1330 C.ar    1  UNL1        0.1067
     20 C         140.3978  146.3052  156.0245 C.ar    1  UNL1        0.0577
     21 S         140.4644  145.6909  157.3913 S.2     1  UNL1       -0.0586
     22 C         139.0320  140.5785  161.9346 C.2     1  UNL1        0.3447
     23 O         137.6692  140.0435  162.2613 O.2     1  UNL1       -0.2450
     24 O         140.2169  140.1639  162.7555 O.3     1  UNL1       -0.4455
     25 C         139.4930  140.8274  165.1608 C.3     1  UNL1        0.0513
     26 C         140.0404  139.8113  164.2027 C.3     1  UNL1        0.2089
     27 C         139.2496  139.5236  159.1346 C.3     1  UNL1        0.1405
     28 N         140.4941  138.7641  158.7820 N.3     1  UNL1       -0.2617
     29 C         141.5990  138.6267  159.7870 C.3     1  UNL1        0.1050
     30 C         142.8436  137.8672  159.4343 C.3     1  UNL1        0.1595
     31 O         142.9831  137.2451  158.0766 O.3     1  UNL1       -0.3508
     32 C         141.8781  137.3825  157.0715 C.3     1  UNL1        0.1595
     33 C         140.6336  138.1419  157.4242 C.3     1  UNL1        0.1050
@<TRIPOS>UNITY_ATOM_ATTR
14 1
charge 1
16 1
charge -1
@<TRIPOS>BOND
     1    25    26    1
     2    26    24    1
     3    24    22    1
     4    22    23    2
     5    22     1    1
     6     1     2    2
     7     2    27    1
     8    27    28    1
     9    28    29    1
    10    29    30    1
    11    30    31    1
    12    31    32    1
    13    32    33    1
    14     2     3    1
    15     3     4    1
    16     4    17    1
    17    17    18   ar
    18    18    19   ar
    19    19    20   ar
    20    20    21   ar
    21     4     5    2
    22     5     6    1
    23     6     8    1
    24     8     9   ar
    25     9    10   ar
    26    10    11   ar
    27    11    12   ar
    28    12    13   ar
    29    13    14    1
    30    14    15    2
    31    14    16    1
    32     6     1    1
    33    13     8   ar
    34    33    28    1
    35    21    17   ar
    36     3     7    1
@<TRIPOS>MOLECULE
*****
 33 36 0 0 0
SMALL
GASTEIGER

@<TRIPOS>ATOM
      1 C         142.3085  141.2081  161.6210 C.2     1  UNL1        0.1399
      2 C         141.8346  141.6531  160.2692 C.2     1  UNL1        0.1355
      3 N         141.7128  140.6591  159.1524 N.pl3   1  UNL1       -0.1998
      4 C         142.0649  139.2201  159.3874 C.2     1  UNL1        0.3442
      5 N         142.5388  138.7751  160.7392 N.2     1  UNL1       -0.0578
      6 C         142.6606  139.7691  161.8560 C.3     1  UNL1        0.2746
      7 H         141.4017  140.9512  158.2652 H       1  UNL1        0.2983
      8 C         143.1345  139.3240  163.2078 C.ar    1  UNL1        0.1000
      9 C         144.5506  139.5834  163.6289 C.ar    1  UNL1        0.0064
     10 C         145.0246  139.1384  164.9807 C.ar    1  UNL1        0.0002
     11 C         144.0825  138.4339  165.9114 C.ar    1  UNL1        0.0063
     12 C         142.6664  138.1744  165.4902 C.ar    1  UNL1        0.0751
     13 C         142.1924  138.6195  164.1384 C.ar    1  UNL1        0.2903
     14 N         140.7763  138.3601  163.7173 N.pl3   1  UNL1        0.0807
     15 O         140.4401  137.1229  162.9388 O.2     1  UNL1        0.0415
     16 O         139.6964  139.3380  164.0747 O.co2   1  UNL1       -0.5760
     17 C         141.9431  138.2262  158.2707 C.ar    1  UNL1        0.1931
     18 N         142.9991  137.2529  157.8374 N.ar    1  UNL1       -0.2297
     19 C         142.4525  136.4562  156.6901 C.ar    1  UNL1        0.1067
     20 C         141.0587  136.9369  156.4142 C.ar    1  UNL1        0.0577
     21 S         140.7439  138.0308  157.3910 S.2     1  UNL1       -0.0586
     22 C         142.4303  142.2021  162.7378 C.2     1  UNL1        0.3447
     23 O         141.3586  142.2903  163.7834 O.2     1  UNL1       -0.2450
     24 O         143.6239  143.1077  162.8088 O.3     1  UNL1       -0.4455
     25 C         144.4468  143.3798  165.2581 C.3     1  UNL1        0.0513
     26 C         143.8415  143.9682  164.0181 C.3     1  UNL1        0.2089
     27 C         141.4825  143.0922  160.0342 C.3     1  UNL1        0.1405
     28 N         140.3994  143.7412  160.8439 N.3     1  UNL1       -0.2617
     29 C         139.1613  142.9705  161.1950 C.3     1  UNL1        0.1050
     30 C         138.0782  143.6196  162.0047 C.3     1  UNL1        0.1595
     31 O         138.2333  145.0393  162.4634 O.3     1  UNL1       -0.3508
     32 C         139.4713  145.8100  162.1123 C.3     1  UNL1        0.1595
     33 C         140.5544  145.1610  161.3026 C.3     1  UNL1        0.1050
@<TRIPOS>UNITY_ATOM_ATTR
14 1
charge 1
16 1
charge -1
@<TRIPOS>BOND
     1    25    26    1
     2    26    24    1
     3    24    22    1
     4    22    23    2
     5    22     1    1
     6     1     2    2
     7     2    27    1
     8    27    28    1
     9    28    29    1
    10    29    30    1
    11    30    31    1
    12    31    32    1
    13    32    33    1
    14     2     3    1
    15     3     4    1
    16     4    17    1
    17    17    18   ar
    18    18    19   ar
    19    19    20   ar
    20    20    21   ar
    21     4     5    2
    22     5     6    1
    23     6     8    1
    24     8     9   ar
    25     9    10   ar
    26    10    11   ar
    27    11    12   ar
    28    12    13   ar
    29    13    14    1
    30    14    15    2
    31    14    16    1
    32     6     1    1
    33    13     8   ar
    34    33    28    1
    35    21    17   ar
    36     3     7    1
