@<TRIPOS>MOLECULE
*****
 37 40 0 0 0
SMALL
GASTEIGER

@<TRIPOS>ATOM
      1 C         141.2340  141.7511  164.5639 C.3     1  UNL1        0.0545
      2 C         141.5283  140.8351  165.7148 C.3     1  UNL1        0.0162
      3 C         140.9558  139.4867  165.3922 C.3     1  UNL1        0.0100
      4 C         140.3078  139.5692  164.0419 C.3     1  UNL1        0.0704
      5 C         140.4797  140.9687  163.5300 C.3     1  UNL1        0.0243
      6 C         139.5926  139.3497  162.7419 C.2     1  UNL1        0.2248
      7 O         138.0996  139.4792  162.6759 O.2     1  UNL1       -0.2749
      8 N         140.3703  139.0006  161.5076 N.am    1  UNL1       -0.2760
      9 C         139.6552  138.7810  160.2075 C.3     1  UNL1        0.1149
     10 C         140.4330  138.4320  158.9733 C.3     1  UNL1        0.1137
     11 N         141.9259  138.3025  159.0392 N.pl3   1  UNL1       -0.2897
     12 C         142.6410  138.5221  160.3394 C.3     1  UNL1        0.1137
     13 C         141.8632  138.8711  161.5735 C.3     1  UNL1        0.1149
     14 C         142.7037  137.9534  157.8051 C.ar    1  UNL1        0.1317
     15 C         142.7858  136.5268  157.3488 C.ar    1  UNL1        0.0382
     16 C         143.5636  136.1777  156.1146 C.ar    1  UNL1        0.0757
     17 C         144.2593  137.2552  155.3368 C.ar    1  UNL1        0.0246
     18 C         144.1771  138.6817  155.7930 C.ar    1  UNL1        0.1002
     19 N         143.3993  139.0308  157.0271 N.ar    1  UNL1       -0.2292
     20 C         143.6458  134.7512  155.6584 C.3     1  UNL1        0.4187
     21 F         143.7279  133.3246  155.2021 F       1  UNL1       -0.1659
     22 F         143.1597  135.1580  154.2989 F       1  UNL1       -0.1659
     23 F         144.1319  134.3443  157.0178 F       1  UNL1       -0.1659
     24 C         139.9864  138.1240  164.2820 C.3     1  UNL1        0.0082
     25 C         141.0913  137.1123  164.3576 C.3     1  UNL1        0.0005
     26 C         139.1500  137.6226  164.4157 C.3     1  UNL1        0.0005
     27 N         141.6254  143.1957  164.4644 N.3     1  UNL1       -0.2975
     28 H         141.2071  143.6699  165.2648 H       1  UNL1        0.1232
     29 C         140.0978  144.9443  163.2987 C.3     1  UNL1        0.1590
     30 C         139.7273  145.7396  162.0820 C.3     1  UNL1        0.1729
     31 O         140.5136  145.5816  160.8145 O.3     1  UNL1       -0.3511
     32 C         141.6706  144.6282  160.7636 C.3     1  UNL1        0.1437
     33 C         142.0411  143.8330  161.9802 C.3     1  UNL1        0.0503
     34 C         141.2547  143.9910  163.2477 C.3     1  UNL1        0.0865
     35 O         139.3114  145.1024  164.5662 O.3     1  UNL1       -0.3523
     36 C         137.6400  143.2649  163.8047 C.3     1  UNL1        0.0346
     37 C         138.1961  144.1500  164.8805 C.3     1  UNL1        0.1423
@<TRIPOS>BOND
     1    36    37    1
     2    37    35    1
     3    29    35    1
     4    29    30    1
     5    30    31    1
     6    31    32    1
     7    32    33    1
     8    33    34    1
     9    34    27    1
    10     1    27    1
    11     1     2    1
    12     2     3    1
    13     3     4    1
    14     4     6    1
    15     6     7    2
    16     6     8   am
    17     8     9    1
    18     9    10    1
    19    10    11    1
    20    11    14    1
    21    14    15   ar
    22    15    16   ar
    23    16    20    1
    24    20    21    1
    25    20    22    1
    26    20    23    1
    27    16    17   ar
    28    17    18   ar
    29    18    19   ar
    30    11    12    1
    31    12    13    1
    32     4    24    1
    33    24    25    1
    34    24    26    1
    35     4     5    1
    36    34    29    1
    37     5     1    1
    38    13     8    1
    39    19    14   ar
    40    27    28    1
@<TRIPOS>MOLECULE
*****
 37 40 0 0 0
SMALL
GASTEIGER

@<TRIPOS>ATOM
      1 C         139.9351  141.0222  160.5187 C.3     1  UNL1        0.0545
      2 C         139.0102  142.0074  159.8677 C.3     1  UNL1        0.0162
      3 C         139.5772  143.3809  160.0726 C.3     1  UNL1        0.0100
      4 C         140.8525  143.2445  160.8504 C.3     1  UNL1        0.0704
      5 C         141.0737  141.7868  161.1260 C.3     1  UNL1        0.0243
      6 C         142.1378  143.4206  161.6034 C.2     1  UNL1        0.2248
      7 O         143.3643  143.9075  160.8902 O.2     1  UNL1       -0.2749
      8 N         142.1966  143.1096  163.0696 N.am    1  UNL1       -0.2760
      9 C         143.4819  143.2856  163.8227 C.3     1  UNL1        0.1149
     10 C         143.5406  142.9746  165.2890 C.3     1  UNL1        0.1137
     11 N         142.3142  142.4876  166.0021 N.pl3   1  UNL1       -0.2897
     12 C         141.0289  142.3116  165.2490 C.3     1  UNL1        0.1137
     13 C         140.9702  142.6226  163.7828 C.3     1  UNL1        0.1149
     14 C         142.3729  142.1766  167.4684 C.ar    1  UNL1        0.1317
     15 C         141.2402  141.4453  168.1258 C.ar    1  UNL1        0.0382
     16 C         141.2990  141.1343  169.5921 C.ar    1  UNL1        0.0757
     17 C         142.4903  141.5546  170.4008 C.ar    1  UNL1        0.0246
     18 C         143.6230  142.2859  169.7433 C.ar    1  UNL1        0.1002
     19 N         143.5642  142.5969  168.2771 N.ar    1  UNL1       -0.2292
     20 C         140.1664  140.4030  170.2496 C.3     1  UNL1        0.4187
     21 F         139.0338  139.6717  170.9072 F       1  UNL1       -0.1659
     22 F         140.7713  140.6756  171.5949 F       1  UNL1       -0.1659
     23 F         139.5614  140.1304  168.9044 F       1  UNL1       -0.1659
     24 C         140.9000  144.7390  160.7321 C.3     1  UNL1        0.0082
     25 C         141.1453  145.3785  159.3976 C.3     1  UNL1        0.0005
     26 C         140.8009  145.4791  161.3733 C.3     1  UNL1        0.0005
     27 N         139.7532  139.5337  160.5558 N.3     1  UNL1       -0.2975
     28 H         138.8274  139.3405  160.1739 H       1  UNL1        0.1232
     29 C         138.8172  139.0335  162.9273 C.3     1  UNL1        0.1590
     30 C         138.9094  138.2990  164.2319 C.3     1  UNL1        0.1729
     31 O         140.0296  137.3303  164.4697 O.3     1  UNL1       -0.3511
     32 C         141.0577  137.0960  163.4029 C.3     1  UNL1        0.1437
     33 C         140.9656  137.8304  162.0984 C.3     1  UNL1        0.0503
     34 C         139.8453  138.7992  161.8605 C.3     1  UNL1        0.0865
     35 O         137.6970  140.0022  162.6895 O.3     1  UNL1       -0.3523
     36 C         137.4900  142.5620  163.0826 C.3     1  UNL1        0.0346
     37 C         137.4978  141.1616  163.6201 C.3     1  UNL1        0.1423
@<TRIPOS>BOND
     1    36    37    1
     2    37    35    1
     3    29    35    1
     4    29    30    1
     5    30    31    1
     6    31    32    1
     7    32    33    1
     8    33    34    1
     9    34    27    1
    10     1    27    1
    11     1     2    1
    12     2     3    1
    13     3     4    1
    14     4     6    1
    15     6     7    2
    16     6     8   am
    17     8     9    1
    18     9    10    1
    19    10    11    1
    20    11    14    1
    21    14    15   ar
    22    15    16   ar
    23    16    20    1
    24    20    21    1
    25    20    22    1
    26    20    23    1
    27    16    17   ar
    28    17    18   ar
    29    18    19   ar
    30    11    12    1
    31    12    13    1
    32     4    24    1
    33    24    25    1
    34    24    26    1
    35     4     5    1
    36    34    29    1
    37     5     1    1
    38    13     8    1
    39    19    14   ar
    40    27    28    1
@<TRIPOS>MOLECULE
*****
 37 40 0 0 0
SMALL
GASTEIGER

@<TRIPOS>ATOM
      1 C         142.6806  139.9552  164.8461 C.3     1  UNL1        0.0545
      2 C         142.6966  138.4576  164.9291 C.3     1  UNL1        0.0162
      3 C         141.3073  137.9632  164.6545 C.3     1  UNL1        0.0100
      4 C         140.4326  139.1553  164.4017 C.3     1  UNL1        0.0704
      5 C         141.2814  140.3864  164.5201 C.3     1  UNL1        0.0243
      6 C         139.3325  140.1327  164.1114 C.2     1  UNL1        0.2248
      7 O         138.3244  140.4639  165.1716 O.2     1  UNL1       -0.2749
      8 N         139.2404  140.7791  162.7609 N.am    1  UNL1       -0.2760
      9 C         138.1403  141.7565  162.4706 C.3     1  UNL1        0.1149
     10 C         138.0483  142.4028  161.1201 C.3     1  UNL1        0.1137
     11 N         139.0564  142.0716  160.0599 N.pl3   1  UNL1       -0.2897
     12 C         140.1565  141.0941  160.3502 C.3     1  UNL1        0.1137
     13 C         140.2485  140.4478  161.7007 C.3     1  UNL1        0.1149
     14 C         138.9644  142.7179  158.7094 C.ar    1  UNL1        0.1317
     15 C         137.8116  142.4011  157.8034 C.ar    1  UNL1        0.0382
     16 C         137.7196  143.0474  156.4529 C.ar    1  UNL1        0.0757
     17 C         138.7803  144.0103  156.0084 C.ar    1  UNL1        0.0246
     18 C         139.9331  144.3270  156.9143 C.ar    1  UNL1        0.1002
     19 N         140.0251  143.6808  158.2649 N.ar    1  UNL1       -0.2292
     20 C         136.5669  142.7307  155.5468 C.3     1  UNL1        0.4187
     21 F         135.4142  142.4140  154.6408 F       1  UNL1       -0.1659
     22 F         136.1675  141.6014  156.4497 F       1  UNL1       -0.1659
     23 F         136.9663  143.8600  154.6440 F       1  UNL1       -0.1659
     24 C         139.3540  138.1285  164.2226 C.3     1  UNL1        0.0082
     25 C         138.7334  137.4754  165.4220 C.3     1  UNL1        0.0005
     26 C         138.9064  137.7366  163.4385 C.3     1  UNL1        0.0005
     27 N         143.8572  140.8623  165.0527 N.3     1  UNL1       -0.2975
     28 H         143.8246  141.1701  166.0246 H       1  UNL1        0.1232
     29 C         144.5644  141.9927  162.8228 C.3     1  UNL1        0.1590
     30 C         144.7171  143.2260  161.9830 C.3     1  UNL1        0.1729
     31 O         144.3153  144.5625  162.5330 O.3     1  UNL1       -0.3511
     32 C         143.7609  144.6655  163.9229 C.3     1  UNL1        0.1437
     33 C         143.6082  143.4322  164.7628 C.3     1  UNL1        0.0503
     34 C         144.0099  142.0957  164.2128 C.3     1  UNL1        0.0865
     35 O         144.9661  140.6562  162.2728 O.3     1  UNL1       -0.3523
     36 C         143.8181  138.4676  161.4716 C.3     1  UNL1        0.0346
     37 C         144.0645  139.9387  161.3125 C.3     1  UNL1        0.1423
@<TRIPOS>BOND
     1    36    37    1
     2    37    35    1
     3    29    35    1
     4    29    30    1
     5    30    31    1
     6    31    32    1
     7    32    33    1
     8    33    34    1
     9    34    27    1
    10     1    27    1
    11     1     2    1
    12     2     3    1
    13     3     4    1
    14     4     6    1
    15     6     7    2
    16     6     8   am
    17     8     9    1
    18     9    10    1
    19    10    11    1
    20    11    14    1
    21    14    15   ar
    22    15    16   ar
    23    16    20    1
    24    20    21    1
    25    20    22    1
    26    20    23    1
    27    16    17   ar
    28    17    18   ar
    29    18    19   ar
    30    11    12    1
    31    12    13    1
    32     4    24    1
    33    24    25    1
    34    24    26    1
    35     4     5    1
    36    34    29    1
    37     5     1    1
    38    13     8    1
    39    19    14   ar
    40    27    28    1
@<TRIPOS>MOLECULE
*****
 37 40 0 0 0
SMALL
GASTEIGER

@<TRIPOS>ATOM
      1 C         139.8102  140.9987  160.0529 C.3     1  UNL1        0.0545
      2 C         139.5499  139.6637  159.4204 C.3     1  UNL1        0.0162
      3 C         140.6945  138.7570  159.7636 C.3     1  UNL1        0.0100
      4 C         141.6623  139.5317  160.6082 C.3     1  UNL1        0.0704
      5 C         141.1157  140.9171  160.7870 C.3     1  UNL1        0.0243
      6 C         142.7937  140.0389  161.4524 C.2     1  UNL1        0.2248
      7 O         144.0887  140.4381  160.8094 O.2     1  UNL1       -0.2749
      8 N         142.6300  140.1469  162.9395 N.am    1  UNL1       -0.2760
      9 C         143.7614  140.6541  163.7837 C.3     1  UNL1        0.1149
     10 C         143.5977  140.7621  165.2709 C.3     1  UNL1        0.1137
     11 N         142.3026  140.3628  165.9138 N.pl3   1  UNL1       -0.2897
     12 C         141.1712  139.8556  165.0696 C.3     1  UNL1        0.1137
     13 C         141.3350  139.7476  163.5824 C.3     1  UNL1        0.1149
     14 C         142.1389  140.4708  167.4009 C.ar    1  UNL1        0.1317
     15 C         141.3595  141.6097  167.9889 C.ar    1  UNL1        0.0382
     16 C         141.1958  141.7176  169.4760 C.ar    1  UNL1        0.0757
     17 C         141.8114  140.6868  170.3751 C.ar    1  UNL1        0.0246
     18 C         142.5907  139.5480  169.7872 C.ar    1  UNL1        0.1002
     19 N         142.7545  139.4400  168.3000 N.ar    1  UNL1       -0.2292
     20 C         140.4165  142.8564  170.0640 C.3     1  UNL1        0.4187
     21 F         139.6372  143.9952  170.6521 F       1  UNL1       -0.1659
     22 F         141.6151  143.7477  169.9266 F       1  UNL1       -0.1659
     23 F         139.2178  141.9651  170.2015 F       1  UNL1       -0.1659
     24 C         142.4453  138.2524  160.6059 C.3     1  UNL1        0.0082
     25 C         142.9024  137.6550  159.3081 C.3     1  UNL1        0.0005
     26 C         142.7665  137.6460  161.3115 C.3     1  UNL1        0.0005
     27 N         138.9211  142.2037  159.9665 N.3     1  UNL1       -0.2975
     28 H         139.1342  142.6640  159.0815 H       1  UNL1        0.1232
     29 C         138.1349  143.1361  162.2605 C.3     1  UNL1        0.1590
     30 C         138.1975  144.1922  163.3239 C.3     1  UNL1        0.1729
     31 O         139.1088  145.3718  163.1567 O.3     1  UNL1       -0.3511
     32 C         139.9576  145.4954  161.9262 C.3     1  UNL1        0.1437
     33 C         139.8950  144.4393  160.8628 C.3     1  UNL1        0.0503
     34 C         138.9836  143.2597  161.0299 C.3     1  UNL1        0.0865
     35 O         137.2235  141.9565  162.4276 O.3     1  UNL1       -0.3523
     36 C         137.8885  139.4525  162.6210 C.3     1  UNL1        0.0346
     37 C         137.6550  140.7879  163.2630 C.3     1  UNL1        0.1423
@<TRIPOS>BOND
     1    36    37    1
     2    37    35    1
     3    29    35    1
     4    29    30    1
     5    30    31    1
     6    31    32    1
     7    32    33    1
     8    33    34    1
     9    34    27    1
    10     1    27    1
    11     1     2    1
    12     2     3    1
    13     3     4    1
    14     4     6    1
    15     6     7    2
    16     6     8   am
    17     8     9    1
    18     9    10    1
    19    10    11    1
    20    11    14    1
    21    14    15   ar
    22    15    16   ar
    23    16    20    1
    24    20    21    1
    25    20    22    1
    26    20    23    1
    27    16    17   ar
    28    17    18   ar
    29    18    19   ar
    30    11    12    1
    31    12    13    1
    32     4    24    1
    33    24    25    1
    34    24    26    1
    35     4     5    1
    36    34    29    1
    37     5     1    1
    38    13     8    1
    39    19    14   ar
    40    27    28    1
@<TRIPOS>MOLECULE
*****
 37 40 0 0 0
SMALL
GASTEIGER

@<TRIPOS>ATOM
      1 C         139.9066  142.3972  164.2786 C.3     1  UNL1        0.0545
      2 C         140.3469  143.3455  165.3541 C.3     1  UNL1        0.0162
      3 C         141.7271  143.8241  165.0137 C.3     1  UNL1        0.0100
      4 C         142.1399  143.1715  163.7277 C.3     1  UNL1        0.0704
      5 C         141.0147  142.2896  163.2734 C.3     1  UNL1        0.0243
      6 C         142.8174  142.6818  162.4822 C.2     1  UNL1        0.2248
      7 O         143.8329  141.5809  162.5642 O.2     1  UNL1       -0.2749
      8 N         142.4794  143.2931  161.1547 N.am    1  UNL1       -0.2760
      9 C         143.1569  142.8035  159.9092 C.3     1  UNL1        0.1149
     10 C         142.8189  143.4148  158.5818 C.3     1  UNL1        0.1137
     11 N         141.8034  144.5157  158.4999 N.pl3   1  UNL1       -0.2897
     12 C         141.1259  145.0053  159.7454 C.3     1  UNL1        0.1137
     13 C         141.4639  144.3940  161.0728 C.3     1  UNL1        0.1149
     14 C         141.4653  145.1270  157.1725 C.ar    1  UNL1        0.1317
     15 C         140.4638  146.2409  157.0931 C.ar    1  UNL1        0.0382
     16 C         140.1258  146.8522  155.7656 C.ar    1  UNL1        0.0757
     17 C         140.7892  146.3497  154.5177 C.ar    1  UNL1        0.0246
     18 C         141.7907  145.2358  154.5971 C.ar    1  UNL1        0.1002
     19 N         142.1287  144.6245  155.9246 N.ar    1  UNL1       -0.2292
     20 C         139.1244  147.9661  155.6861 C.3     1  UNL1        0.4187
     21 F         138.1230  149.0800  155.6066 F       1  UNL1       -0.1659
     22 F         139.3714  148.0829  154.2112 F       1  UNL1       -0.1659
     23 F         138.8774  147.8493  157.1610 F       1  UNL1       -0.1659
     24 C         143.4066  143.9509  163.9216 C.3     1  UNL1        0.0082
     25 C         144.3499  143.5857  165.0292 C.3     1  UNL1        0.0005
     26 C         143.8152  144.7177  163.4592 C.3     1  UNL1        0.0005
     27 N         138.5894  141.6820  164.2188 N.3     1  UNL1       -0.2975
     28 H         138.2467  141.6153  165.1772 H       1  UNL1        0.1232
     29 C         137.9246  140.1000  162.2680 C.3     1  UNL1        0.1590
     30 C         137.8459  138.7210  161.6831 C.3     1  UNL1        0.1729
     31 O         138.3532  137.5450  162.4639 O.3     1  UNL1       -0.3511
     32 C         138.9392  137.7480  163.8297 C.3     1  UNL1        0.1437
     33 C         139.0179  139.1270  164.4146 C.3     1  UNL1        0.0503
     34 C         138.5106  140.3030  163.6338 C.3     1  UNL1        0.0865
     35 O         137.4173  141.2760  161.4872 O.3     1  UNL1       -0.3523
     36 C         139.5016  141.4607  159.9472 C.3     1  UNL1        0.0346
     37 C         138.3709  142.1125  160.6867 C.3     1  UNL1        0.1423
@<TRIPOS>BOND
     1    36    37    1
     2    37    35    1
     3    29    35    1
     4    29    30    1
     5    30    31    1
     6    31    32    1
     7    32    33    1
     8    33    34    1
     9    34    27    1
    10     1    27    1
    11     1     2    1
    12     2     3    1
    13     3     4    1
    14     4     6    1
    15     6     7    2
    16     6     8   am
    17     8     9    1
    18     9    10    1
    19    10    11    1
    20    11    14    1
    21    14    15   ar
    22    15    16   ar
    23    16    20    1
    24    20    21    1
    25    20    22    1
    26    20    23    1
    27    16    17   ar
    28    17    18   ar
    29    18    19   ar
    30    11    12    1
    31    12    13    1
    32     4    24    1
    33    24    25    1
    34    24    26    1
    35     4     5    1
    36    34    29    1
    37     5     1    1
    38    13     8    1
    39    19    14   ar
    40    27    28    1
@<TRIPOS>MOLECULE
*****
 37 40 0 0 0
SMALL
GASTEIGER

@<TRIPOS>ATOM
      1 C         140.3771  139.7312  160.0536 C.3     1  UNL1        0.0545
      2 C         141.2785  140.0409  158.8954 C.3     1  UNL1        0.0162
      3 C         141.4635  141.5283  158.8368 C.3     1  UNL1        0.0100
      4 C         140.6764  142.1379  159.9588 C.3     1  UNL1        0.0704
      5 C         140.0050  141.0272  160.7108 C.3     1  UNL1        0.0243
      6 C         140.0001  143.0181  160.9676 C.2     1  UNL1        0.2248
      7 O         138.9332  143.9776  160.5305 O.2     1  UNL1       -0.2749
      8 N         140.3907  142.9388  162.4138 N.am    1  UNL1       -0.2760
      9 C         139.7145  143.8189  163.4227 C.3     1  UNL1        0.1149
     10 C         140.1051  143.7396  164.8688 C.3     1  UNL1        0.1137
     11 N         141.1720  142.7801  165.3059 N.pl3   1  UNL1       -0.2897
     12 C         141.8483  141.9000  164.2969 C.3     1  UNL1        0.1137
     13 C         141.4576  141.9793  162.8509 C.3     1  UNL1        0.1149
     14 C         141.5627  142.7008  166.7520 C.ar    1  UNL1        0.1317
     15 C         140.5526  143.0020  167.8193 C.ar    1  UNL1        0.0382
     16 C         140.9432  142.9226  169.2654 C.ar    1  UNL1        0.0757
     17 C         142.3438  142.5421  169.6441 C.ar    1  UNL1        0.0246
     18 C         143.3539  142.2410  168.5768 C.ar    1  UNL1        0.1002
     19 N         142.9632  142.3203  167.1308 N.ar    1  UNL1       -0.2292
     20 C         139.9332  143.2238  170.3327 C.3     1  UNL1        0.4187
     21 F         138.9233  143.5249  171.4000 F       1  UNL1       -0.1659
     22 F         139.5702  141.7699  170.3994 F       1  UNL1       -0.1659
     23 F         140.2963  144.6776  170.2660 F       1  UNL1       -0.1659
     24 C         141.2065  143.4325  159.4176 C.3     1  UNL1        0.0082
     25 C         140.6461  144.0000  158.1473 C.3     1  UNL1        0.0005
     26 C         141.8980  144.0662  159.7159 C.3     1  UNL1        0.0005
     27 N         139.9268  138.3654  160.4798 N.3     1  UNL1       -0.2975
     28 H         138.9577  138.2670  160.1772 H       1  UNL1        0.1232
     29 C         141.2696  137.5806  162.5610 C.3     1  UNL1        0.1590
     30 C         141.3119  137.1951  164.0100 C.3     1  UNL1        0.1729
     31 O         140.0539  137.2090  164.8269 O.3     1  UNL1       -0.3511
     32 C         138.7536  137.6083  164.1948 C.3     1  UNL1        0.1437
     33 C         138.7112  137.9938  162.7458 C.3     1  UNL1        0.0503
     34 C         139.9692  137.9799  161.9289 C.3     1  UNL1        0.0865
     35 O         142.5275  137.5667  161.7441 O.3     1  UNL1       -0.3523
     36 C         143.9985  139.6827  161.4147 C.3     1  UNL1        0.0346
     37 C         143.6968  138.4125  162.1532 C.3     1  UNL1        0.1423
@<TRIPOS>BOND
     1    36    37    1
     2    37    35    1
     3    29    35    1
     4    29    30    1
     5    30    31    1
     6    31    32    1
     7    32    33    1
     8    33    34    1
     9    34    27    1
    10     1    27    1
    11     1     2    1
    12     2     3    1
    13     3     4    1
    14     4     6    1
    15     6     7    2
    16     6     8   am
    17     8     9    1
    18     9    10    1
    19    10    11    1
    20    11    14    1
    21    14    15   ar
    22    15    16   ar
    23    16    20    1
    24    20    21    1
    25    20    22    1
    26    20    23    1
    27    16    17   ar
    28    17    18   ar
    29    18    19   ar
    30    11    12    1
    31    12    13    1
    32     4    24    1
    33    24    25    1
    34    24    26    1
    35     4     5    1
    36    34    29    1
    37     5     1    1
    38    13     8    1
    39    19    14   ar
    40    27    28    1
@<TRIPOS>MOLECULE
*****
 37 40 0 0 0
SMALL
GASTEIGER

@<TRIPOS>ATOM
      1 C         139.8014  140.2698  164.3638 C.3     1  UNL1        0.0545
      2 C         138.3978  140.4842  164.8475 C.3     1  UNL1        0.0162
      3 C         138.0691  141.9389  164.6864 C.3     1  UNL1        0.0100
      4 C         139.2695  142.6235  164.1032 C.3     1  UNL1        0.0704
      5 C         140.3402  141.5920  163.9038 C.3     1  UNL1        0.0243
      6 C         140.2908  143.5649  163.5369 C.2     1  UNL1        0.2248
      7 O         141.2636  144.2528  164.4481 O.2     1  UNL1       -0.2749
      8 N         140.3393  143.8185  162.0592 N.am    1  UNL1       -0.2760
      9 C         141.3605  144.7599  161.4928 C.3     1  UNL1        0.1149
     10 C         141.4090  145.0134  160.0152 C.3     1  UNL1        0.1137
     11 N         140.4361  144.3255  159.1040 N.pl3   1  UNL1       -0.2897
     12 C         139.4149  143.3841  159.6704 C.3     1  UNL1        0.1137
     13 C         139.3665  143.1306  161.1480 C.3     1  UNL1        0.1149
     14 C         140.4845  144.5790  157.6263 C.ar    1  UNL1        0.1317
     15 C         140.0275  145.8976  157.0763 C.ar    1  UNL1        0.0382
     16 C         140.0759  146.1511  155.5986 C.ar    1  UNL1        0.0757
     17 C         140.5813  145.0861  154.6711 C.ar    1  UNL1        0.0246
     18 C         141.0383  143.7676  155.2212 C.ar    1  UNL1        0.1002
     19 N         140.9899  143.5141  156.6988 N.ar    1  UNL1       -0.2292
     20 C         139.6189  147.4696  155.0485 C.3     1  UNL1        0.4187
     21 F         139.1619  148.7881  154.4984 F       1  UNL1       -0.1659
     22 F         138.9051  147.7592  156.3356 F       1  UNL1       -0.1659
     23 F         140.3327  147.1800  153.7615 F       1  UNL1       -0.1659
     24 C         138.4124  143.8518  164.1842 C.3     1  UNL1        0.0082
     25 C         138.5421  144.7812  165.3544 C.3     1  UNL1        0.0005
     26 C         137.7174  144.2399  163.6054 C.3     1  UNL1        0.0005
     27 N         140.5371  138.9628  164.3437 N.3     1  UNL1       -0.2975
     28 H         140.9014  138.8154  165.2850 H       1  UNL1        0.1232
     29 C         141.4671  138.0586  162.0926 C.3     1  UNL1        0.1590
     30 C         142.6149  137.8586  161.1479 C.3     1  UNL1        0.1729
     31 O         143.9806  138.3626  161.5096 O.3     1  UNL1       -0.3511
     32 C         144.1985  139.0667  162.8160 C.3     1  UNL1        0.1437
     33 C         143.0507  139.2667  163.7607 C.3     1  UNL1        0.0503
     34 C         141.6850  138.7627  163.3990 C.3     1  UNL1        0.0865
     35 O         140.1014  137.5546  161.7308 O.3     1  UNL1       -0.3523
     36 C         137.7707  138.7007  161.6659 C.3     1  UNL1        0.0346
     37 C         139.1204  138.4659  161.0549 C.3     1  UNL1        0.1423
@<TRIPOS>BOND
     1    36    37    1
     2    37    35    1
     3    29    35    1
     4    29    30    1
     5    30    31    1
     6    31    32    1
     7    32    33    1
     8    33    34    1
     9    34    27    1
    10     1    27    1
    11     1     2    1
    12     2     3    1
    13     3     4    1
    14     4     6    1
    15     6     7    2
    16     6     8   am
    17     8     9    1
    18     9    10    1
    19    10    11    1
    20    11    14    1
    21    14    15   ar
    22    15    16   ar
    23    16    20    1
    24    20    21    1
    25    20    22    1
    26    20    23    1
    27    16    17   ar
    28    17    18   ar
    29    18    19   ar
    30    11    12    1
    31    12    13    1
    32     4    24    1
    33    24    25    1
    34    24    26    1
    35     4     5    1
    36    34    29    1
    37     5     1    1
    38    13     8    1
    39    19    14   ar
    40    27    28    1
@<TRIPOS>MOLECULE
*****
 37 40 0 0 0
SMALL
GASTEIGER

@<TRIPOS>ATOM
      1 C         142.5703  140.4479  165.3926 C.3     1  UNL1        0.0545
      2 C         141.6473  140.5483  166.5707 C.3     1  UNL1        0.0162
      3 C         140.4483  139.6902  166.2947 C.3     1  UNL1        0.0100
      4 C         140.6303  139.0595  164.9459 C.3     1  UNL1        0.0704
      5 C         141.9418  139.5278  164.3885 C.3     1  UNL1        0.0243
      6 C         140.5340  138.2977  163.6575 C.2     1  UNL1        0.2248
      7 O         140.9750  136.8652  163.5983 O.2     1  UNL1       -0.2749
      8 N         139.9966  138.9683  162.4280 N.am    1  UNL1       -0.2760
      9 C         139.9002  138.2065  161.1394 C.3     1  UNL1        0.1149
     10 C         139.3628  138.8772  159.9100 C.3     1  UNL1        0.1137
     11 N         138.9218  140.3097  159.9692 N.pl3   1  UNL1       -0.2897
     12 C         139.0182  141.0715  161.2578 C.3     1  UNL1        0.1137
     13 C         139.5556  140.4008  162.4871 C.3     1  UNL1        0.1149
     14 C         138.3844  140.9804  158.7398 C.ar    1  UNL1        0.1317
     15 C         139.0078  142.2524  158.2462 C.ar    1  UNL1        0.0382
     16 C         138.4704  142.9231  157.0168 C.ar    1  UNL1        0.0757
     17 C         137.3098  142.3218  156.2811 C.ar    1  UNL1        0.0246
     18 C         136.6865  141.0499  156.7746 C.ar    1  UNL1        0.1002
     19 N         137.2238  140.3792  158.0040 N.ar    1  UNL1       -0.2292
     20 C         139.0937  144.1950  156.5232 C.3     1  UNL1        0.4187
     21 F         139.7170  145.4669  156.0296 F       1  UNL1       -0.1659
     22 F         139.6189  144.4722  157.9006 F       1  UNL1       -0.1659
     23 F         138.5685  143.9178  155.1458 F       1  UNL1       -0.1659
     24 C         139.2988  138.4320  165.2341 C.3     1  UNL1        0.0082
     25 C         138.1517  139.2833  165.6919 C.3     1  UNL1        0.0005
     26 C         138.9540  137.5110  165.1944 C.3     1  UNL1        0.0005
     27 N         143.8901  141.1452  165.2446 N.3     1  UNL1       -0.2975
     28 H         144.1458  141.4909  166.1696 H       1  UNL1        0.1232
     29 C         144.5436  142.0746  162.9081 C.3     1  UNL1        0.1590
     30 C         144.6793  143.2300  161.9613 C.3     1  UNL1        0.1729
     31 O         144.2974  144.6114  162.4039 O.3     1  UNL1       -0.3511
     32 C         143.7798  144.8374  163.7935 C.3     1  UNL1        0.1437
     33 C         143.6440  143.6820  164.7404 C.3     1  UNL1        0.0503
     34 C         144.0259  142.3006  164.2977 C.3     1  UNL1        0.0865
     35 O         144.9255  140.6933  162.4654 O.3     1  UNL1       -0.3523
     36 C         143.8704  138.5047  161.5452 C.3     1  UNL1        0.0346
     37 C         144.1024  139.9823  161.4324 C.3     1  UNL1        0.1423
@<TRIPOS>BOND
     1    36    37    1
     2    37    35    1
     3    29    35    1
     4    29    30    1
     5    30    31    1
     6    31    32    1
     7    32    33    1
     8    33    34    1
     9    34    27    1
    10     1    27    1
    11     1     2    1
    12     2     3    1
    13     3     4    1
    14     4     6    1
    15     6     7    2
    16     6     8   am
    17     8     9    1
    18     9    10    1
    19    10    11    1
    20    11    14    1
    21    14    15   ar
    22    15    16   ar
    23    16    20    1
    24    20    21    1
    25    20    22    1
    26    20    23    1
    27    16    17   ar
    28    17    18   ar
    29    18    19   ar
    30    11    12    1
    31    12    13    1
    32     4    24    1
    33    24    25    1
    34    24    26    1
    35     4     5    1
    36    34    29    1
    37     5     1    1
    38    13     8    1
    39    19    14   ar
    40    27    28    1
@<TRIPOS>MOLECULE
*****
 37 40 0 0 0
SMALL
GASTEIGER

@<TRIPOS>ATOM
      1 C         140.2508  142.2741  160.9094 C.3     1  UNL1        0.0545
      2 C         138.8355  141.9313  160.5494 C.3     1  UNL1        0.0162
      3 C         138.6040  140.4911  160.8990 C.3     1  UNL1        0.0100
      4 C         139.8762  139.9437  161.4750 C.3     1  UNL1        0.0704
      5 C         140.8940  141.0456  161.4814 C.3     1  UNL1        0.0243
      6 C         140.9841  139.1305  162.0760 C.2     1  UNL1        0.2248
      7 O         141.7233  138.1325  161.2348 O.2     1  UNL1       -0.2749
      8 N         141.3529  139.3152  163.5182 N.am    1  UNL1       -0.2760
      9 C         142.4608  138.5020  164.1192 C.3     1  UNL1        0.1149
     10 C         142.8295  138.6867  165.5614 C.3     1  UNL1        0.1137
     11 N         142.0903  139.6847  166.4026 N.pl3   1  UNL1       -0.2897
     12 C         140.9824  140.4979  165.8016 C.3     1  UNL1        0.1137
     13 C         140.6137  140.3131  164.3594 C.3     1  UNL1        0.1149
     14 C         142.4590  139.8694  167.8448 C.ar    1  UNL1        0.1317
     15 C         142.6456  141.2503  168.4002 C.ar    1  UNL1        0.0382
     16 C         143.0143  141.4351  169.8424 C.ar    1  UNL1        0.0757
     17 C         143.1963  140.2391  170.7291 C.ar    1  UNL1        0.0246
     18 C         143.0097  138.8582  170.1738 C.ar    1  UNL1        0.1002
     19 N         142.6410  138.6735  168.7316 N.ar    1  UNL1       -0.2292
     20 C         143.2009  142.8159  170.3978 C.3     1  UNL1        0.4187
     21 F         143.3875  144.1967  170.9533 F       1  UNL1       -0.1659
     22 F         141.7258  142.9130  170.6520 F       1  UNL1       -0.1659
     23 F         144.6760  142.7187  170.1437 F       1  UNL1       -0.1659
     24 C         139.0901  138.6719  161.5943 C.3     1  UNL1        0.0082
     25 C         138.5102  138.2698  162.9179 C.3     1  UNL1        0.0005
     26 C         138.8336  137.9646  160.9597 C.3     1  UNL1        0.0005
     27 N         140.9075  143.6105  160.7289 N.3     1  UNL1       -0.2975
     28 H         141.4158  143.5719  159.8454 H       1  UNL1        0.1232
     29 C         141.3888  145.0239  162.8551 C.3     1  UNL1        0.1590
     30 C         142.3519  145.5317  163.8869 C.3     1  UNL1        0.1729
     31 O         143.7968  145.1339  163.8243 O.3     1  UNL1       -0.3511
     32 C         144.2786  144.2283  162.7299 C.3     1  UNL1        0.1437
     33 C         143.3155  143.7205  161.6982 C.3     1  UNL1        0.0503
     34 C         141.8706  144.1183  161.7608 C.3     1  UNL1        0.0865
     35 O         139.9438  145.4217  162.9177 O.3     1  UNL1       -0.3523
     36 C         137.7397  144.1180  163.3556 C.3     1  UNL1        0.0346
     37 C         139.0140  144.7233  163.8651 C.3     1  UNL1        0.1423
@<TRIPOS>BOND
     1    36    37    1
     2    37    35    1
     3    29    35    1
     4    29    30    1
     5    30    31    1
     6    31    32    1
     7    32    33    1
     8    33    34    1
     9    34    27    1
    10     1    27    1
    11     1     2    1
    12     2     3    1
    13     3     4    1
    14     4     6    1
    15     6     7    2
    16     6     8   am
    17     8     9    1
    18     9    10    1
    19    10    11    1
    20    11    14    1
    21    14    15   ar
    22    15    16   ar
    23    16    20    1
    24    20    21    1
    25    20    22    1
    26    20    23    1
    27    16    17   ar
    28    17    18   ar
    29    18    19   ar
    30    11    12    1
    31    12    13    1
    32     4    24    1
    33    24    25    1
    34    24    26    1
    35     4     5    1
    36    34    29    1
    37     5     1    1
    38    13     8    1
    39    19    14   ar
    40    27    28    1
