@<TRIPOS>MOLECULE
*****
 39 41 0 0 0
SMALL
GASTEIGER

@<TRIPOS>ATOM
      1 C         140.5134  140.6052  166.5493 C.3     1  UNL1        0.0800
      2 C         141.8522  139.9308  166.6009 C.3     1  UNL1        0.0372
      3 C         143.0620  140.6220  166.0453 C.3     1  UNL1        0.0738
      4 N         142.9329  141.9876  165.4381 N.3     1  UNL1       -0.2738
      5 C         141.5940  142.6619  165.3866 C.3     1  UNL1        0.0738
      6 C         140.3843  141.9707  165.9422 C.3     1  UNL1        0.0372
      7 N         137.8138  139.2693  169.1335 N.am    1  UNL1       -0.1773
      8 C         139.0236  139.9604  168.5778 C.2     1  UNL1        0.3266
      9 O         139.9534  140.6981  169.4951 O.2     1  UNL1       -0.2504
     10 N         139.3035  139.9140  167.1049 N.am    1  UNL1       -0.2600
     11 H         137.2035  138.7852  168.5314 H       1  UNL1        0.1841
     12 O         137.5338  139.3157  170.6064 O.3     1  UNL1       -0.2625
     13 C         136.2001  138.8725  171.1306 C.3     1  UNL1        0.2030
     14 C         136.1219  138.0516  172.3836 C.3     1  UNL1        0.1768
     15 C         135.9567  135.7357  173.5494 C.3     1  UNL1        0.1742
     16 O         136.0101  136.5584  172.2963 O.3     1  UNL1       -0.3483
     17 C         138.3738  139.1764  166.1877 C.3     1  UNL1        0.1222
     18 C         138.8359  138.7697  164.8197 C.ar    1  UNL1        0.0047
     19 C         139.7202  137.6013  164.4992 C.ar    1  UNL1        0.0049
     20 C         139.9258  137.5694  163.0136 C.ar    1  UNL1        0.0352
     21 S         139.1685  138.7182  162.4162 S.2     1  UNL1       -0.0862
     22 C         138.4949  139.4600  163.5324 C.ar    1  UNL1        0.0328
     23 C         144.1427  142.6787  164.8825 C.3     1  UNL1        0.0592
     24 C         144.2146  144.1770  164.8782 C.3     1  UNL1        0.0174
     25 C         145.2805  141.8716  164.3313 C.3     1  UNL1        0.0372
     26 C         145.2916  141.4827  162.8827 C.3     1  UNL1        0.0911
     27 N         144.7680  142.4330  161.8469 N.am    1  UNL1       -0.3008
     28 C         143.3760  142.2679  161.3129 C.2     1  UNL1        0.2467
     29 O         142.5076  141.1525  161.8146 O.2     1  UNL1       -0.2701
     30 H         145.3380  143.1651  161.5176 H       1  UNL1        0.1497
     31 C         142.8524  143.2182  160.2772 C.ar    1  UNL1        0.0630
     32 C         143.1841  143.0071  158.8297 C.ar    1  UNL1       -0.0140
     33 C         144.0394  141.8457  158.4179 C.3     1  UNL1        0.0313
     34 C         142.6605  143.9575  157.7939 C.ar    1  UNL1        0.0267
     35 C         141.8053  145.1189  158.2057 C.ar    1  UNL1        0.1376
     36 CL        141.2817  146.0692  157.1700 Cl      1  UNL1       -0.0614
     37 N         141.4735  145.3300  159.6533 N.ar    1  UNL1       -0.2381
     38 C         141.9971  144.3797  160.6890 C.ar    1  UNL1        0.0643
     39 C         141.6654  144.5907  162.1366 C.3     1  UNL1        0.0523
@<TRIPOS>BOND
     1    15    16    1
     2    16    14    1
     3    14    13    1
     4    13    12    1
     5    12     7    1
     6     7     8   am
     7     8     9    2
     8     8    10   am
     9    10    17    1
    10    17    18    1
    11    18    19   ar
    12    19    20   ar
    13    20    21   ar
    14    21    22   ar
    15    10     1    1
    16     1     2    1
    17     2     3    1
    18     3     4    1
    19     4    23    1
    20    23    24    1
    21    23    25    1
    22    25    26    1
    23    26    27    1
    24    27    28   am
    25    28    29    2
    26    28    31    1
    27    31    32   ar
    28    32    33    1
    29    32    34   ar
    30    34    35   ar
    31    35    36    1
    32    35    37   ar
    33    37    38   ar
    34    38    39    1
    35     4     5    1
    36     5     6    1
    37    22    18   ar
    38     6     1    1
    39    38    31   ar
    40     7    11    1
    41    27    30    1
@<TRIPOS>MOLECULE
*****
 39 41 0 0 0
SMALL
GASTEIGER

@<TRIPOS>ATOM
      1 C         140.4635  140.4892  166.7854 C.3     1  UNL1        0.0800
      2 C         141.7623  139.7391  166.7685 C.3     1  UNL1        0.0372
      3 C         142.9900  140.3782  166.1904 C.3     1  UNL1        0.0738
      4 N         142.9189  141.7675  165.6293 N.3     1  UNL1       -0.2738
      5 C         141.6201  142.5176  165.6463 C.3     1  UNL1        0.0738
      6 C         140.3924  141.8785  166.2243 C.3     1  UNL1        0.0372
      7 N         137.7411  139.2963  169.4152 N.am    1  UNL1       -0.1773
      8 C         138.9688  139.9354  168.8371 C.2     1  UNL1        0.3266
      9 O         139.9297  140.6599  169.7326 O.2     1  UNL1       -0.2504
     10 N         139.2357  139.8500  167.3635 N.am    1  UNL1       -0.2600
     11 H         137.1105  138.8208  168.8275 H       1  UNL1        0.1841
     12 O         137.4743  139.3816  170.8888 O.3     1  UNL1       -0.2625
     13 C         136.2536  138.7307  171.4689 C.3     1  UNL1        0.2030
     14 C         136.2832  137.2776  171.8400 C.3     1  UNL1        0.1768
     15 C         135.5456  136.4368  174.1850 C.3     1  UNL1        0.1742
     16 O         135.2287  136.7131  172.7451 O.3     1  UNL1       -0.3483
     17 C         138.2749  139.1256  166.4680 C.3     1  UNL1        0.1222
     18 C         138.6693  138.7897  165.0602 C.ar    1  UNL1        0.0047
     19 C         139.4502  137.5844  164.6272 C.ar    1  UNL1        0.0049
     20 C         139.6156  137.6500  163.1377 C.ar    1  UNL1        0.0352
     21 S         138.9369  138.8957  162.6503 S.2     1  UNL1       -0.0862
     22 C         138.3521  139.6001  163.8385 C.ar    1  UNL1        0.0328
     23 C         144.1467  142.4067  165.0512 C.3     1  UNL1        0.0592
     24 C         144.6025  143.7449  165.5527 C.3     1  UNL1        0.0174
     25 C         144.9186  141.7076  163.9717 C.3     1  UNL1        0.0372
     26 C         144.7616  142.1329  162.5419 C.3     1  UNL1        0.0911
     27 N         143.5565  141.7023  161.7593 N.am    1  UNL1       -0.3008
     28 C         142.6862  142.7291  161.0972 C.2     1  UNL1        0.2467
     29 O         143.0209  144.1862  161.2175 O.2     1  UNL1       -0.2701
     30 H         143.3368  140.7459  161.6803 H       1  UNL1        0.1497
     31 C         141.4810  142.2985  160.3146 C.ar    1  UNL1        0.0630
     32 C         140.1294  142.2869  160.9649 C.ar    1  UNL1       -0.0140
     33 C         139.9829  142.7058  162.3977 C.3     1  UNL1        0.0313
     34 C         138.9243  141.8564  160.1824 C.ar    1  UNL1        0.0267
     35 C         139.0708  141.4375  158.7496 C.ar    1  UNL1        0.1376
     36 CL        137.8657  141.0070  157.9670 Cl      1  UNL1       -0.0614
     37 N         140.4225  141.4491  158.0992 N.ar    1  UNL1       -0.2381
     38 C         141.6276  141.8796  158.8817 C.ar    1  UNL1        0.0643
     39 C         142.9792  141.8912  158.2314 C.3     1  UNL1        0.0523
@<TRIPOS>BOND
     1    15    16    1
     2    16    14    1
     3    14    13    1
     4    13    12    1
     5    12     7    1
     6     7     8   am
     7     8     9    2
     8     8    10   am
     9    10    17    1
    10    17    18    1
    11    18    19   ar
    12    19    20   ar
    13    20    21   ar
    14    21    22   ar
    15    10     1    1
    16     1     2    1
    17     2     3    1
    18     3     4    1
    19     4    23    1
    20    23    24    1
    21    23    25    1
    22    25    26    1
    23    26    27    1
    24    27    28   am
    25    28    29    2
    26    28    31    1
    27    31    32   ar
    28    32    33    1
    29    32    34   ar
    30    34    35   ar
    31    35    36    1
    32    35    37   ar
    33    37    38   ar
    34    38    39    1
    35     4     5    1
    36     5     6    1
    37    22    18   ar
    38     6     1    1
    39    38    31   ar
    40     7    11    1
    41    27    30    1
@<TRIPOS>MOLECULE
*****
 39 41 0 0 0
SMALL
GASTEIGER

@<TRIPOS>ATOM
      1 C         141.6274  140.2834  166.6292 C.3     1  UNL1        0.0800
      2 C         140.2999  139.8614  166.0728 C.3     1  UNL1        0.0372
      3 C         139.3549  140.8898  165.5258 C.3     1  UNL1        0.0738
      4 N         139.7375  142.3402  165.5351 N.3     1  UNL1       -0.2738
      5 C         141.0650  142.7622  166.0914 C.3     1  UNL1        0.0738
      6 C         142.0100  141.7337  166.6384 C.3     1  UNL1        0.0372
      7 N         143.5060  137.9010  169.1876 N.am    1  UNL1       -0.1773
      8 C         142.5610  138.9294  168.6405 C.2     1  UNL1        0.3266
      9 O         141.6045  139.6324  169.5576 O.2     1  UNL1       -0.2504
     10 N         142.5725  139.2549  167.1763 N.am    1  UNL1       -0.2600
     11 H         144.1338  137.4397  168.5857 H       1  UNL1        0.1841
     12 O         143.4946  137.5755  170.6518 O.3     1  UNL1       -0.2625
     13 C         144.2693  136.3977  171.1643 C.3     1  UNL1        0.2030
     14 C         145.6477  136.5923  171.7230 C.3     1  UNL1        0.1768
     15 C         145.9216  134.3560  173.0168 C.3     1  UNL1        0.1742
     16 O         146.4799  135.4020  172.0980 O.3     1  UNL1       -0.3483
     17 C         143.5289  138.5520  166.2592 C.3     1  UNL1        0.1222
     18 C         143.7187  139.0426  164.8544 C.ar    1  UNL1        0.0047
     19 C         142.9314  138.6065  163.6543 C.ar    1  UNL1        0.0049
     20 C         143.4552  139.3498  162.4613 C.ar    1  UNL1        0.0352
     21 S         144.5661  140.2452  162.9240 S.2     1  UNL1       -0.0862
     22 C         144.7289  140.0553  164.4030 C.ar    1  UNL1        0.0328
     23 C         138.7924  143.3687  164.9880 C.3     1  UNL1        0.0592
     24 C         139.0389  144.8258  165.2448 C.3     1  UNL1        0.0174
     25 C         137.6008  142.9399  164.1841 C.3     1  UNL1        0.0372
     26 C         137.6235  143.0566  162.6888 C.3     1  UNL1        0.0911
     27 N         138.8816  142.7504  161.9316 N.am    1  UNL1       -0.3008
     28 C         139.7090  143.8678  161.3687 C.2     1  UNL1        0.2467
     29 O         139.2782  145.2914  161.5629 O.2     1  UNL1       -0.2701
     30 H         139.1644  141.8160  161.8041 H       1  UNL1        0.1497
     31 C         140.9671  143.5616  160.6115 C.ar    1  UNL1        0.0630
     32 C         142.2600  143.3759  161.3490 C.ar    1  UNL1       -0.0140
     33 C         142.2947  143.4964  162.8437 C.3     1  UNL1        0.0313
     34 C         143.5181  143.0696  160.5918 C.ar    1  UNL1        0.0267
     35 C         143.4834  142.9491  159.0971 C.ar    1  UNL1        0.1376
     36 CL        144.7415  142.6429  158.3399 Cl      1  UNL1       -0.0614
     37 N         142.1905  143.1348  158.3595 N.ar    1  UNL1       -0.2381
     38 C         140.9323  143.4410  159.1167 C.ar    1  UNL1        0.0643
     39 C         139.6395  143.6267  158.3791 C.3     1  UNL1        0.0523
@<TRIPOS>BOND
     1    15    16    1
     2    16    14    1
     3    14    13    1
     4    13    12    1
     5    12     7    1
     6     7     8   am
     7     8     9    2
     8     8    10   am
     9    10    17    1
    10    17    18    1
    11    18    19   ar
    12    19    20   ar
    13    20    21   ar
    14    21    22   ar
    15    10     1    1
    16     1     2    1
    17     2     3    1
    18     3     4    1
    19     4    23    1
    20    23    24    1
    21    23    25    1
    22    25    26    1
    23    26    27    1
    24    27    28   am
    25    28    29    2
    26    28    31    1
    27    31    32   ar
    28    32    33    1
    29    32    34   ar
    30    34    35   ar
    31    35    36    1
    32    35    37   ar
    33    37    38   ar
    34    38    39    1
    35     4     5    1
    36     5     6    1
    37    22    18   ar
    38     6     1    1
    39    38    31   ar
    40     7    11    1
    41    27    30    1
@<TRIPOS>MOLECULE
*****
 39 41 0 0 0
SMALL
GASTEIGER

@<TRIPOS>ATOM
      1 C         142.1073  143.1128  164.3169 C.3     1  UNL1        0.0800
      2 C         143.0662  142.6173  165.3585 C.3     1  UNL1        0.0372
      3 C         142.5908  142.3736  166.7602 C.3     1  UNL1        0.0738
      4 N         141.1566  142.6255  167.1202 N.3     1  UNL1       -0.2738
      5 C         140.1978  143.1210  166.0786 C.3     1  UNL1        0.0738
      6 C         140.6731  143.3646  164.6769 C.3     1  UNL1        0.0372
      7 N         142.3680  144.6175  160.6538 N.am    1  UNL1       -0.1773
      8 C         141.8927  144.3738  162.0555 C.2     1  UNL1        0.3266
      9 O         140.7274  145.1474  162.5975 O.2     1  UNL1       -0.2504
     10 N         142.5826  143.3565  162.9152 N.am    1  UNL1       -0.2600
     11 H         143.1327  144.1097  160.2981 H       1  UNL1        0.1841
     12 O         141.6780  145.6348  159.7941 O.3     1  UNL1       -0.2625
     13 C         140.6867  145.1932  158.7585 C.3     1  UNL1        0.2030
     14 C         139.9508  143.8973  158.9292 C.3     1  UNL1        0.1768
     15 C         141.7411  142.4127  157.7714 C.3     1  UNL1        0.1742
     16 O         140.6895  142.5960  158.8252 O.3     1  UNL1       -0.3483
     17 C         143.7478  142.5828  162.3732 C.3     1  UNL1        0.1222
     18 C         143.5922  141.1290  162.0381 C.ar    1  UNL1        0.0047
     19 C         142.8546  140.5705  160.8574 C.ar    1  UNL1        0.0049
     20 C         142.9534  139.0747  160.9145 C.ar    1  UNL1        0.0352
     21 S         143.7521  138.7090  162.1304 S.2     1  UNL1       -0.0862
     22 C         144.1469  139.9786  162.8248 C.ar    1  UNL1        0.0328
     23 C         140.6813  142.3818  168.5219 C.3     1  UNL1        0.0592
     24 C         140.4334  143.5404  169.4418 C.3     1  UNL1        0.0174
     25 C         140.4539  140.9796  169.0036 C.3     1  UNL1        0.0372
     26 C         139.5851  140.0467  168.2133 C.3     1  UNL1        0.0911
     27 N         139.7566  139.9404  166.7269 N.am    1  UNL1       -0.3008
     28 C         138.7013  139.2723  165.8961 C.2     1  UNL1        0.2467
     29 O         137.4746  138.7107  166.5516 O.2     1  UNL1       -0.2701
     30 H         140.5617  140.3090  166.2966 H       1  UNL1        0.1497
     31 C         138.8727  139.1661  164.4097 C.ar    1  UNL1        0.0630
     32 C         139.6390  138.0176  163.8233 C.ar    1  UNL1       -0.0140
     33 C         140.2338  136.9754  164.7233 C.3     1  UNL1        0.0313
     34 C         139.8104  137.9113  162.3369 C.ar    1  UNL1        0.0267
     35 C         139.2156  138.9535  161.4369 C.ar    1  UNL1        0.1376
     36 CL        139.3871  138.8472  159.9506 Cl      1  UNL1       -0.0614
     37 N         138.4493  140.1020  162.0233 N.ar    1  UNL1       -0.2381
     38 C         138.2779  140.2083  163.5097 C.ar    1  UNL1        0.0643
     39 C         137.5116  141.3568  164.0960 C.3     1  UNL1        0.0523
@<TRIPOS>BOND
     1    15    16    1
     2    16    14    1
     3    14    13    1
     4    13    12    1
     5    12     7    1
     6     7     8   am
     7     8     9    2
     8     8    10   am
     9    10    17    1
    10    17    18    1
    11    18    19   ar
    12    19    20   ar
    13    20    21   ar
    14    21    22   ar
    15    10     1    1
    16     1     2    1
    17     2     3    1
    18     3     4    1
    19     4    23    1
    20    23    24    1
    21    23    25    1
    22    25    26    1
    23    26    27    1
    24    27    28   am
    25    28    29    2
    26    28    31    1
    27    31    32   ar
    28    32    33    1
    29    32    34   ar
    30    34    35   ar
    31    35    36    1
    32    35    37   ar
    33    37    38   ar
    34    38    39    1
    35     4     5    1
    36     5     6    1
    37    22    18   ar
    38     6     1    1
    39    38    31   ar
    40     7    11    1
    41    27    30    1
@<TRIPOS>MOLECULE
*****
 39 41 0 0 0
SMALL
GASTEIGER

@<TRIPOS>ATOM
      1 C         140.4683  140.4522  166.9014 C.3     1  UNL1        0.0800
      2 C         140.4406  141.9212  166.5994 C.3     1  UNL1        0.0372
      3 C         141.6581  142.5948  166.0393 C.3     1  UNL1        0.0738
      4 N         142.9034  141.7994  165.7811 N.3     1  UNL1       -0.2738
      5 C         142.9311  140.3304  166.0830 C.3     1  UNL1        0.0738
      6 C         141.7136  139.6568  166.6432 C.3     1  UNL1        0.0372
      7 N         137.6804  139.2766  169.4695 N.am    1  UNL1       -0.1773
      8 C         138.8979  139.9502  168.9093 C.2     1  UNL1        0.3266
      9 O         139.7627  140.7955  169.7969 O.2     1  UNL1       -0.2504
     10 N         139.2507  139.7786  167.4616 N.am    1  UNL1       -0.2600
     11 H         137.1128  138.7218  168.8870 H       1  UNL1        0.1841
     12 O         137.3276  139.4482  170.9173 O.3     1  UNL1       -0.2625
     13 C         136.3434  138.5195  171.5646 C.3     1  UNL1        0.2030
     14 C         136.7008  137.0784  171.7782 C.3     1  UNL1        0.1768
     15 C         134.7950  136.7943  173.5211 C.3     1  UNL1        0.1742
     16 O         135.7933  136.1912  172.5778 O.3     1  UNL1       -0.3483
     17 C         138.3860  138.9334  166.5740 C.3     1  UNL1        0.1222
     18 C         138.5268  139.0237  165.0833 C.ar    1  UNL1        0.0047
     19 C         139.1196  137.9757  164.1887 C.ar    1  UNL1        0.0049
     20 C         139.0587  138.4822  162.7780 C.ar    1  UNL1        0.0352
     21 S         138.4282  139.8431  162.8009 S.2     1  UNL1       -0.0862
     22 C         138.0995  140.1777  164.2256 C.ar    1  UNL1        0.0328
     23 C         144.1210  142.4730  165.2209 C.3     1  UNL1        0.0592
     24 C         144.3883  143.9164  165.5294 C.3     1  UNL1        0.0174
     25 C         145.0712  141.7033  164.3522 C.3     1  UNL1        0.0372
     26 C         145.2520  142.0881  162.9138 C.3     1  UNL1        0.0911
     27 N         144.9583  141.0947  161.8290 N.am    1  UNL1       -0.3008
     28 C         143.5464  140.8814  161.3695 C.2     1  UNL1        0.2467
     29 O         142.4282  141.6615  161.9949 O.2     1  UNL1       -0.2701
     30 H         145.6922  140.5827  161.4186 H       1  UNL1        0.1497
     31 C         143.2527  139.8879  160.2847 C.ar    1  UNL1        0.0630
     32 C         143.0098  138.4489  160.6312 C.ar    1  UNL1       -0.0140
     33 C         143.0606  138.0033  162.0626 C.3     1  UNL1        0.0313
     34 C         142.7161  137.4555  159.5464 C.ar    1  UNL1        0.0267
     35 C         142.6653  137.9011  158.1151 C.ar    1  UNL1        0.1376
     36 CL        142.3716  136.9076  157.0303 Cl      1  UNL1       -0.0614
     37 N         142.9082  139.3402  157.7685 N.ar    1  UNL1       -0.2381
     38 C         143.2019  140.3336  158.8533 C.ar    1  UNL1        0.0643
     39 C         143.4448  141.7726  158.5067 C.3     1  UNL1        0.0523
@<TRIPOS>BOND
     1    15    16    1
     2    16    14    1
     3    14    13    1
     4    13    12    1
     5    12     7    1
     6     7     8   am
     7     8     9    2
     8     8    10   am
     9    10    17    1
    10    17    18    1
    11    18    19   ar
    12    19    20   ar
    13    20    21   ar
    14    21    22   ar
    15    10     1    1
    16     1     2    1
    17     2     3    1
    18     3     4    1
    19     4    23    1
    20    23    24    1
    21    23    25    1
    22    25    26    1
    23    26    27    1
    24    27    28   am
    25    28    29    2
    26    28    31    1
    27    31    32   ar
    28    32    33    1
    29    32    34   ar
    30    34    35   ar
    31    35    36    1
    32    35    37   ar
    33    37    38   ar
    34    38    39    1
    35     4     5    1
    36     5     6    1
    37    22    18   ar
    38     6     1    1
    39    38    31   ar
    40     7    11    1
    41    27    30    1
@<TRIPOS>MOLECULE
*****
 39 41 0 0 0
SMALL
GASTEIGER

@<TRIPOS>ATOM
      1 C         138.9761  141.6159  159.6735 C.3     1  UNL1        0.0800
      2 C         138.0326  141.8189  160.8218 C.3     1  UNL1        0.0372
      3 C         138.3482  142.8323  161.8816 C.3     1  UNL1        0.0738
      4 N         139.6072  143.6429  161.7931 N.3     1  UNL1       -0.2738
      5 C         140.5507  143.4399  160.6449 C.3     1  UNL1        0.0738
      6 C         140.2352  142.4265  159.5851 C.3     1  UNL1        0.0372
      7 N         137.4760  139.9659  156.3906 N.am    1  UNL1       -0.1773
      8 C         137.7916  140.9793  157.4505 C.2     1  UNL1        0.3266
      9 O         137.2381  142.3697  157.3473 O.2     1  UNL1       -0.2504
     10 N         138.6606  140.6024  158.6136 N.am    1  UNL1       -0.2600
     11 H         137.8393  139.0534  156.4584 H       1  UNL1        0.1841
     12 O         136.6070  140.3428  155.2276 O.3     1  UNL1       -0.2625
     13 C         135.1993  139.8310  155.1463 C.3     1  UNL1        0.2030
     14 C         134.1983  140.2197  156.1937 C.3     1  UNL1        0.1768
     15 C         133.1707  138.7268  158.0552 C.3     1  UNL1        0.1742
     16 O         134.2747  139.6161  157.5647 O.3     1  UNL1       -0.3483
     17 C         139.2141  139.2121  158.7168 C.3     1  UNL1        0.1222
     18 C         139.7081  138.6976  160.0364 C.ar    1  UNL1        0.0047
     19 C         141.1438  138.5057  160.4262 C.ar    1  UNL1        0.0049
     20 C         141.1762  137.9741  161.8286 C.ar    1  UNL1        0.0352
     21 S         139.7605  137.8375  162.3053 S.2     1  UNL1       -0.0862
     22 C         138.8532  138.2847  161.1977 C.ar    1  UNL1        0.0328
     23 C         139.9228  144.6564  162.8530 C.3     1  UNL1        0.0592
     24 C         141.2533  145.3490  162.8561 C.3     1  UNL1        0.0174
     25 C         138.9077  144.9772  163.9098 C.3     1  UNL1        0.0372
     26 C         139.0765  144.4394  165.2998 C.3     1  UNL1        0.0911
     27 N         140.1400  143.4209  165.5859 N.am    1  UNL1       -0.3008
     28 C         139.8225  141.9580  165.4903 C.2     1  UNL1        0.2467
     29 O         138.4417  141.5135  165.1087 O.2     1  UNL1       -0.2701
     30 H         141.0463  143.7127  165.8365 H       1  UNL1        0.1497
     31 C         140.8860  140.9396  165.7765 C.ar    1  UNL1        0.0630
     32 C         141.0091  140.3493  167.1499 C.ar    1  UNL1       -0.0140
     33 C         140.0688  140.7775  168.2373 C.3     1  UNL1        0.0313
     34 C         142.0726  139.3309  167.4361 C.ar    1  UNL1        0.0267
     35 C         143.0129  138.9027  166.3487 C.ar    1  UNL1        0.1376
     36 CL        144.0764  137.8843  166.6349 Cl      1  UNL1       -0.0614
     37 N         142.8898  139.4929  164.9752 N.ar    1  UNL1       -0.2381
     38 C         141.8264  140.5114  164.6890 C.ar    1  UNL1        0.0643
     39 C         141.7033  141.1016  163.3156 C.3     1  UNL1        0.0523
@<TRIPOS>BOND
     1    15    16    1
     2    16    14    1
     3    14    13    1
     4    13    12    1
     5    12     7    1
     6     7     8   am
     7     8     9    2
     8     8    10   am
     9    10    17    1
    10    17    18    1
    11    18    19   ar
    12    19    20   ar
    13    20    21   ar
    14    21    22   ar
    15    10     1    1
    16     1     2    1
    17     2     3    1
    18     3     4    1
    19     4    23    1
    20    23    24    1
    21    23    25    1
    22    25    26    1
    23    26    27    1
    24    27    28   am
    25    28    29    2
    26    28    31    1
    27    31    32   ar
    28    32    33    1
    29    32    34   ar
    30    34    35   ar
    31    35    36    1
    32    35    37   ar
    33    37    38   ar
    34    38    39    1
    35     4     5    1
    36     5     6    1
    37    22    18   ar
    38     6     1    1
    39    38    31   ar
    40     7    11    1
    41    27    30    1
@<TRIPOS>MOLECULE
*****
 39 41 0 0 0
SMALL
GASTEIGER

@<TRIPOS>ATOM
      1 C         140.2395  143.1698  159.7395 C.3     1  UNL1        0.0800
      2 C         138.9605  142.3978  159.8729 C.3     1  UNL1        0.0372
      3 C         138.9961  140.9480  160.2559 C.3     1  UNL1        0.0738
      4 N         140.3108  140.2702  160.5055 N.3     1  UNL1       -0.2738
      5 C         141.5898  141.0423  160.3721 C.3     1  UNL1        0.0738
      6 C         141.5542  142.4921  159.9891 C.3     1  UNL1        0.0372
      7 N         140.1536  146.4627  157.5259 N.am    1  UNL1       -0.1773
      8 C         140.1892  145.0129  157.9090 C.2     1  UNL1        0.3266
      9 O         140.2099  143.9561  156.8445 O.2     1  UNL1       -0.2504
     10 N         140.2040  144.6197  159.3564 N.am    1  UNL1       -0.2600
     11 H         140.1400  147.1562  158.2245 H       1  UNL1        0.1841
     12 O         140.1388  146.8558  156.0784 O.3     1  UNL1       -0.2625
     13 C         138.9385  147.5457  155.5008 C.3     1  UNL1        0.2030
     14 C         138.9920  149.0131  155.1946 C.3     1  UNL1        0.1768
     15 C         138.8511  151.0890  156.7504 C.3     1  UNL1        0.1742
     16 O         138.1757  149.9781  156.0023 O.3     1  UNL1       -0.3483
     17 C         140.1832  145.6764  160.4209 C.3     1  UNL1        0.1222
     18 C         140.1710  145.2828  161.8683 C.ar    1  UNL1        0.0047
     19 C         141.3717  145.1626  162.7594 C.ar    1  UNL1        0.0049
     20 C         140.8988  144.7458  164.1206 C.ar    1  UNL1        0.0352
     21 S         139.4059  144.6084  164.0706 S.2     1  UNL1       -0.0862
     22 C         138.9561  144.9402  162.6787 C.ar    1  UNL1        0.0328
     23 C         140.3463  138.8204  160.8886 C.3     1  UNL1        0.0592
     24 C         141.6597  138.1480  161.1588 C.3     1  UNL1        0.0174
     25 C         139.0685  138.0429  161.0014 C.3     1  UNL1        0.0372
     26 C         138.3728  137.9314  162.3255 C.3     1  UNL1        0.0911
     27 N         139.0954  138.3040  163.5861 N.am    1  UNL1       -0.3008
     28 C         138.7781  139.5963  164.2785 C.2     1  UNL1        0.2467
     29 O         137.7383  140.5160  163.7103 O.2     1  UNL1       -0.2701
     30 H         139.7778  137.7003  163.9591 H       1  UNL1        0.1497
     31 C         139.5007  139.9689  165.5391 C.ar    1  UNL1        0.0630
     32 C         138.9610  139.5342  166.8694 C.ar    1  UNL1       -0.0140
     33 C         137.6987  138.7269  166.9391 C.3     1  UNL1        0.0313
     34 C         139.6836  139.9067  168.1300 C.ar    1  UNL1        0.0267
     35 C         140.9459  140.7139  168.0603 C.ar    1  UNL1        0.1376
     36 CL        141.6685  141.0865  169.3208 Cl      1  UNL1       -0.0614
     37 N         141.4857  141.1487  166.7299 N.ar    1  UNL1       -0.2381
     38 C         140.7631  140.7761  165.4693 C.ar    1  UNL1        0.0643
     39 C         141.3028  141.2108  164.1391 C.3     1  UNL1        0.0523
@<TRIPOS>BOND
     1    15    16    1
     2    16    14    1
     3    14    13    1
     4    13    12    1
     5    12     7    1
     6     7     8   am
     7     8     9    2
     8     8    10   am
     9    10    17    1
    10    17    18    1
    11    18    19   ar
    12    19    20   ar
    13    20    21   ar
    14    21    22   ar
    15    10     1    1
    16     1     2    1
    17     2     3    1
    18     3     4    1
    19     4    23    1
    20    23    24    1
    21    23    25    1
    22    25    26    1
    23    26    27    1
    24    27    28   am
    25    28    29    2
    26    28    31    1
    27    31    32   ar
    28    32    33    1
    29    32    34   ar
    30    34    35   ar
    31    35    36    1
    32    35    37   ar
    33    37    38   ar
    34    38    39    1
    35     4     5    1
    36     5     6    1
    37    22    18   ar
    38     6     1    1
    39    38    31   ar
    40     7    11    1
    41    27    30    1
@<TRIPOS>MOLECULE
*****
 39 41 0 0 0
SMALL
GASTEIGER

@<TRIPOS>ATOM
      1 C         138.5446  139.2522  165.8869 C.3     1  UNL1        0.0800
      2 C         137.9907  140.3604  165.0414 C.3     1  UNL1        0.0372
      3 C         137.9782  140.2292  163.5472 C.3     1  UNL1        0.0738
      4 N         138.5196  138.9898  162.8986 N.3     1  UNL1       -0.2738
      5 C         139.0735  137.8815  163.7441 C.3     1  UNL1        0.0738
      6 C         139.0860  138.0127  165.2383 C.3     1  UNL1        0.0372
      7 N         137.5129  138.8369  169.6966 N.am    1  UNL1       -0.1773
      8 C         137.5004  138.7058  168.2024 C.2     1  UNL1        0.3266
      9 O         136.4312  137.8971  167.5293 O.2     1  UNL1       -0.2504
     10 N         138.5571  139.3833  167.3812 N.am    1  UNL1       -0.2600
     11 H         138.2146  139.3676  170.1383 H       1  UNL1        0.1841
     12 O         136.4562  138.1593  170.5178 O.3     1  UNL1       -0.2625
     13 C         135.8558  138.8651  171.6974 C.3     1  UNL1        0.2030
     14 C         135.0805  138.0892  172.7206 C.3     1  UNL1        0.1768
     15 C         136.3546  135.9402  173.4335 C.3     1  UNL1        0.1742
     16 O         135.1824  136.5933  172.7631 O.3     1  UNL1       -0.3483
     17 C         139.6262  140.1920  168.0542 C.3     1  UNL1        0.1222
     18 C         140.7021  140.8421  167.2356 C.ar    1  UNL1        0.0047
     19 C         140.6947  142.2552  166.7327 C.ar    1  UNL1        0.0049
     20 C         141.9622  142.4797  165.9624 C.ar    1  UNL1        0.0352
     21 S         142.7528  141.2052  165.9894 S.2     1  UNL1       -0.0862
     22 C         141.9740  140.1931  166.7762 C.ar    1  UNL1        0.0328
     23 C         138.5071  138.8586  161.4043 C.3     1  UNL1        0.0592
     24 C         137.3511  139.3961  160.6139 C.3     1  UNL1        0.0174
     25 C         139.6506  138.1899  160.7006 C.3     1  UNL1        0.0372
     26 C         140.8912  138.9687  160.3779 C.3     1  UNL1        0.0911
     27 N         141.3097  140.1104  161.2562 N.am    1  UNL1       -0.3008
     28 C         142.3138  141.1088  160.7609 C.2     1  UNL1        0.2467
     29 O         142.8993  140.9654  159.3873 O.2     1  UNL1       -0.2701
     30 H         140.9255  140.2045  162.1577 H       1  UNL1        0.1497
     31 C         142.7323  142.2505  161.6391 C.ar    1  UNL1        0.0630
     32 C         141.8928  143.4917  161.7066 C.ar    1  UNL1       -0.0140
     33 C         140.6347  143.5912  160.8958 C.3     1  UNL1        0.0313
     34 C         142.3113  144.6334  162.5849 C.ar    1  UNL1        0.0267
     35 C         143.5693  144.5339  163.3957 C.ar    1  UNL1        0.1376
     36 CL        143.9878  145.6756  164.2739 Cl      1  UNL1       -0.0614
     37 N         144.4089  143.2927  163.3282 N.ar    1  UNL1       -0.2381
     38 C         143.9904  142.1510  162.4500 C.ar    1  UNL1        0.0643
     39 C         144.8299  140.9098  162.3825 C.3     1  UNL1        0.0523
@<TRIPOS>BOND
     1    15    16    1
     2    16    14    1
     3    14    13    1
     4    13    12    1
     5    12     7    1
     6     7     8   am
     7     8     9    2
     8     8    10   am
     9    10    17    1
    10    17    18    1
    11    18    19   ar
    12    19    20   ar
    13    20    21   ar
    14    21    22   ar
    15    10     1    1
    16     1     2    1
    17     2     3    1
    18     3     4    1
    19     4    23    1
    20    23    24    1
    21    23    25    1
    22    25    26    1
    23    26    27    1
    24    27    28   am
    25    28    29    2
    26    28    31    1
    27    31    32   ar
    28    32    33    1
    29    32    34   ar
    30    34    35   ar
    31    35    36    1
    32    35    37   ar
    33    37    38   ar
    34    38    39    1
    35     4     5    1
    36     5     6    1
    37    22    18   ar
    38     6     1    1
    39    38    31   ar
    40     7    11    1
    41    27    30    1
@<TRIPOS>MOLECULE
*****
 39 41 0 0 0
SMALL
GASTEIGER

@<TRIPOS>ATOM
      1 C         142.4688  140.4849  160.4413 C.3     1  UNL1        0.0800
      2 C         143.5181  141.5567  160.4525 C.3     1  UNL1        0.0372
      3 C         143.1446  142.9684  160.7951 C.3     1  UNL1        0.0738
      4 N         141.7217  143.3084  161.1265 N.3     1  UNL1       -0.2738
      5 C         140.6723  142.2366  161.1153 C.3     1  UNL1        0.0738
      6 C         141.0459  140.8249  160.7727 C.3     1  UNL1        0.0372
      7 N         142.8859  137.1056  158.4025 N.am    1  UNL1       -0.1773
      8 C         142.5123  138.5174  158.7452 C.2     1  UNL1        0.3266
      9 O         141.8087  139.3735  157.7341 O.2     1  UNL1       -0.2504
     10 N         142.8424  139.0731  160.0988 N.am    1  UNL1       -0.2600
     11 H         143.3476  136.5438  159.0661 H       1  UNL1        0.1841
     12 O         142.5558  136.5499  157.0489 O.3     1  UNL1       -0.2625
     13 C         143.6308  135.9182  156.2151 C.3     1  UNL1        0.2030
     14 C         144.3840  136.7418  155.2129 C.3     1  UNL1        0.1768
     15 C         144.5760  139.3142  155.5223 C.3     1  UNL1        0.1742
     16 O         145.1641  137.9415  155.6625 O.3     1  UNL1       -0.3483
     17 C         143.5460  138.2171  161.1098 C.3     1  UNL1        0.1222
     18 C         143.2630  138.3970  162.5718 C.ar    1  UNL1        0.0047
     19 C         142.0402  137.9205  163.2983 C.ar    1  UNL1        0.0049
     20 C         142.1746  138.3141  164.7396 C.ar    1  UNL1        0.0352
     21 S         143.4804  139.0337  164.9038 S.2     1  UNL1       -0.0862
     22 C         144.1531  139.0850  163.5640 C.ar    1  UNL1        0.0328
     23 C         141.3481  144.7202  161.4691 C.3     1  UNL1        0.0592
     24 C         140.4032  145.4811  160.5869 C.3     1  UNL1        0.0174
     25 C         141.9195  145.3711  162.6938 C.3     1  UNL1        0.0372
     26 C         141.3683  145.0355  164.0478 C.3     1  UNL1        0.0911
     27 N         140.9562  143.6278  164.3621 N.am    1  UNL1       -0.3008
     28 C         139.7027  143.3703  165.1448 C.2     1  UNL1        0.2467
     29 O         138.8614  144.5203  165.6132 O.2     1  UNL1       -0.2701
     30 H         141.5084  142.8730  164.0546 H       1  UNL1        0.1497
     31 C         139.2906  141.9626  165.4590 C.ar    1  UNL1        0.0630
     32 C         139.8660  141.2617  166.6538 C.ar    1  UNL1       -0.0140
     33 C         140.8535  141.9684  167.5343 C.3     1  UNL1        0.0313
     34 C         139.4539  139.8540  166.9680 C.ar    1  UNL1        0.0267
     35 C         138.4665  139.1473  166.0874 C.ar    1  UNL1        0.1376
     36 CL        138.0544  137.7397  166.4016 Cl      1  UNL1       -0.0614
     37 N         137.8911  139.8483  164.8925 N.ar    1  UNL1       -0.2381
     38 C         138.3031  141.2559  164.5783 C.ar    1  UNL1        0.0643
     39 C         137.7278  141.9569  163.3835 C.3     1  UNL1        0.0523
@<TRIPOS>BOND
     1    15    16    1
     2    16    14    1
     3    14    13    1
     4    13    12    1
     5    12     7    1
     6     7     8   am
     7     8     9    2
     8     8    10   am
     9    10    17    1
    10    17    18    1
    11    18    19   ar
    12    19    20   ar
    13    20    21   ar
    14    21    22   ar
    15    10     1    1
    16     1     2    1
    17     2     3    1
    18     3     4    1
    19     4    23    1
    20    23    24    1
    21    23    25    1
    22    25    26    1
    23    26    27    1
    24    27    28   am
    25    28    29    2
    26    28    31    1
    27    31    32   ar
    28    32    33    1
    29    32    34   ar
    30    34    35   ar
    31    35    36    1
    32    35    37   ar
    33    37    38   ar
    34    38    39    1
    35     4     5    1
    36     5     6    1
    37    22    18   ar
    38     6     1    1
    39    38    31   ar
    40     7    11    1
    41    27    30    1
