@<TRIPOS>MOLECULE
*****
 38 43 0 0 0
SMALL
GASTEIGER

@<TRIPOS>ATOM
      1 C         141.2944  142.0209  170.5939 C.3     1  UNL1        0.1352
      2 N         141.5368  141.5724  169.1832 N.ar    1  UNL1       -0.2765
      3 C         142.7322  141.9121  168.3431 C.ar    1  UNL1        0.3317
      4 O         143.8950  142.7599  168.7663 O.2     1  UNL1       -0.2463
      5 N         142.5605  141.2551  167.0056 N.ar    1  UNL1       -0.2792
      6 C         141.2591  140.5094  167.0190 C.ar    1  UNL1        0.0826
      7 C         140.5685  139.6771  165.9797 C.ar    1  UNL1        0.0352
      8 C         141.2012  139.4809  164.6339 C.ar    1  UNL1        0.0053
      9 C         140.5105  138.6487  163.5945 C.ar    1  UNL1        0.0291
     10 C         139.1871  138.0125  163.9010 C.ar    1  UNL1        0.1416
     11 F         138.4964  137.1802  162.8616 F       1  UNL1       -0.2041
     12 C         138.5544  138.2086  165.2468 C.ar    1  UNL1        0.0488
     13 C         139.2451  139.0409  166.2862 C.ar    1  UNL1        0.0850
     14 N         138.6124  139.2370  167.6320 N.ar    1  UNL1       -0.2422
     15 C         139.3030  140.0693  168.6713 C.ar    1  UNL1        0.1175
     16 C         140.6264  140.7054  168.3648 C.ar    1  UNL1        0.0989
     17 C         143.5216  141.3306  165.8564 C.3     1  UNL1        0.1194
     18 C         144.1088  140.0736  165.2860 C.3     1  UNL1        0.0279
     19 C         145.0699  140.1491  164.1368 C.3     1  UNL1        0.0341
     20 C         145.4438  141.4814  163.5580 C.3     1  UNL1        0.1423
     21 O         144.8565  142.7383  164.1284 O.3     1  UNL1       -0.3518
     22 C         143.8955  142.6629  165.2776 C.3     1  UNL1        0.1647
     23 C         141.1432  138.4525  162.2487 C.ar    1  UNL1        0.0216
     24 C         142.5823  138.0413  162.1492 C.ar    1  UNL1        0.0064
     25 C         143.2150  137.8452  160.8035 C.ar    1  UNL1        0.0577
     26 C         142.4086  138.0602  159.5571 C.ar    1  UNL1        0.2249
     27 N         140.9695  138.4714  159.6566 N.ar    1  UNL1       -0.2101
     28 C         140.3368  138.6676  161.0023 C.ar    1  UNL1        0.1021
     29 O         143.0413  137.8641  158.2113 O.3     1  UNL1       -0.4602
     30 C         143.1561  139.0190  157.2610 C.3     1  UNL1        0.2085
     31 C         143.6453  140.3490  157.7526 C.3     1  UNL1        0.0647
     32 C         142.6782  141.4791  157.9463 C.3     1  UNL1        0.0759
     33 N         142.0699  141.7228  159.2956 N.3     1  UNL1       -0.2726
     34 C         140.6187  142.0848  159.4098 C.3     1  UNL1        0.0721
     35 C         140.0105  142.3285  160.7591 C.3     1  UNL1        0.0174
     36 C         140.8534  142.2102  161.9942 C.3     1  UNL1        0.0029
     37 C         142.3046  141.8482  161.8800 C.3     1  UNL1        0.0174
     38 C         142.9128  141.6045  160.5307 C.3     1  UNL1        0.0721
@<TRIPOS>BOND
     1     1     2    1
     2     2     3   ar
     3     3     4    2
     4     3     5   ar
     5    17     5    1
     6    17    18    1
     7    18    19    1
     8    19    20    1
     9    20    21    1
    10    21    22    1
    11     5     6   ar
    12     6     7   ar
    13     7     8   ar
    14     8     9   ar
    15     9    23    1
    16    23    24   ar
    17    24    25   ar
    18    25    26   ar
    19    26    29    1
    20    29    30    1
    21    30    31    1
    22    31    32    1
    23    32    33    1
    24    33    34    1
    25    34    35    1
    26    35    36    1
    27    36    37    1
    28    37    38    1
    29    26    27   ar
    30    27    28   ar
    31     9    10   ar
    32    10    11    1
    33    10    12   ar
    34    12    13   ar
    35    13    14   ar
    36    14    15   ar
    37    15    16   ar
    38    16     2   ar
    39    22    17    1
    40    16     6   ar
    41    13     7   ar
    42    28    23   ar
    43    38    33    1
@<TRIPOS>MOLECULE
*****
 38 43 0 0 0
SMALL
GASTEIGER

@<TRIPOS>ATOM
      1 C         141.1858  141.9217  170.6659 C.3     1  UNL1        0.1352
      2 N         141.4403  141.4894  169.2523 N.ar    1  UNL1       -0.2765
      3 C         142.6424  141.8393  168.4262 C.ar    1  UNL1        0.3317
      4 O         143.8011  142.6830  168.8685 O.2     1  UNL1       -0.2463
      5 N         142.4824  141.1973  167.0799 N.ar    1  UNL1       -0.2792
      6 C         141.1815  140.4507  167.0740 C.ar    1  UNL1        0.0826
      7 C         140.5001  139.6298  166.0196 C.ar    1  UNL1        0.0352
      8 C         141.1442  139.4493  164.6770 C.ar    1  UNL1        0.0053
      9 C         140.4628  138.6284  163.6226 C.ar    1  UNL1        0.0291
     10 C         139.1373  137.9879  163.9108 C.ar    1  UNL1        0.1416
     11 F         138.4560  137.1670  162.8563 F       1  UNL1       -0.2041
     12 C         138.4933  138.1684  165.2533 C.ar    1  UNL1        0.0488
     13 C         139.1747  138.9894  166.3078 C.ar    1  UNL1        0.0850
     14 N         138.5306  139.1698  167.6504 N.ar    1  UNL1       -0.2422
     15 C         139.2120  139.9907  168.7048 C.ar    1  UNL1        0.1175
     16 C         140.5374  140.6312  168.4166 C.ar    1  UNL1        0.0989
     17 C         143.4530  141.2864  165.9397 C.3     1  UNL1        0.1194
     18 C         144.0985  140.0423  165.4053 C.3     1  UNL1        0.0279
     19 C         145.0690  140.1313  164.2651 C.3     1  UNL1        0.0341
     20 C         145.3942  141.4644  163.6593 C.3     1  UNL1        0.1423
     21 O         144.7487  142.7085  164.1937 O.3     1  UNL1       -0.3518
     22 C         143.7781  142.6195  165.3339 C.3     1  UNL1        0.1647
     23 C         141.1068  138.4479  162.2799 C.ar    1  UNL1        0.0216
     24 C         142.5431  138.0252  162.1878 C.ar    1  UNL1        0.0064
     25 C         143.1872  137.8447  160.8452 C.ar    1  UNL1        0.0577
     26 C         142.3950  138.0868  159.5948 C.ar    1  UNL1        0.2249
     27 N         140.9587  138.5095  159.6869 N.ar    1  UNL1       -0.2101
     28 C         140.3146  138.6900  161.0294 C.ar    1  UNL1        0.1021
     29 O         143.0390  137.9063  158.2521 O.3     1  UNL1       -0.4602
     30 C         142.3064  137.1853  157.1597 C.3     1  UNL1        0.2085
     31 C         142.7921  135.8471  156.6873 C.3     1  UNL1        0.0647
     32 C         143.5189  134.9367  157.6323 C.3     1  UNL1        0.0759
     33 N         143.6223  133.4709  157.3311 N.3     1  UNL1       -0.2726
     34 C         142.6037  132.8129  156.4483 C.3     1  UNL1        0.0721
     35 C         142.7071  131.3471  156.1471 C.3     1  UNL1        0.0174
     36 C         143.8292  130.5393  156.7288 C.3     1  UNL1        0.0029
     37 C         144.8478  131.1972  157.6116 C.3     1  UNL1        0.0174
     38 C         144.7444  132.6630  157.9128 C.3     1  UNL1        0.0721
@<TRIPOS>BOND
     1     1     2    1
     2     2     3   ar
     3     3     4    2
     4     3     5   ar
     5    17     5    1
     6    17    18    1
     7    18    19    1
     8    19    20    1
     9    20    21    1
    10    21    22    1
    11     5     6   ar
    12     6     7   ar
    13     7     8   ar
    14     8     9   ar
    15     9    23    1
    16    23    24   ar
    17    24    25   ar
    18    25    26   ar
    19    26    29    1
    20    29    30    1
    21    30    31    1
    22    31    32    1
    23    32    33    1
    24    33    34    1
    25    34    35    1
    26    35    36    1
    27    36    37    1
    28    37    38    1
    29    26    27   ar
    30    27    28   ar
    31     9    10   ar
    32    10    11    1
    33    10    12   ar
    34    12    13   ar
    35    13    14   ar
    36    14    15   ar
    37    15    16   ar
    38    16     2   ar
    39    22    17    1
    40    16     6   ar
    41    13     7   ar
    42    28    23   ar
    43    38    33    1
@<TRIPOS>MOLECULE
*****
 38 43 0 0 0
SMALL
GASTEIGER

@<TRIPOS>ATOM
      1 C         141.8204  140.3836  156.7061 C.3     1  UNL1        0.1352
      2 N         141.9914  140.2990  158.1939 N.ar    1  UNL1       -0.2765
      3 C         143.1165  140.8943  158.9874 C.ar    1  UNL1        0.3317
      4 O         144.2683  141.6789  158.4324 O.2     1  UNL1       -0.2463
      5 N         142.8877  140.5674  160.4333 N.ar    1  UNL1       -0.2792
      6 C         141.6211  139.7700  160.5335 C.ar    1  UNL1        0.0826
      7 C         140.9007  139.1736  161.7062 C.ar    1  UNL1        0.0352
      8 C         141.4546  139.3395  163.0903 C.ar    1  UNL1        0.0053
      9 C         140.7342  138.7430  164.2629 C.ar    1  UNL1        0.0291
     10 C         139.4598  137.9807  164.0516 C.ar    1  UNL1        0.1416
     11 F         138.7393  137.3842  165.2243 F       1  UNL1       -0.2041
     12 C         138.9058  137.8148  162.6675 C.ar    1  UNL1        0.0488
     13 C         139.6263  138.4112  161.4948 C.ar    1  UNL1        0.0850
     14 N         139.0723  138.2453  160.1108 N.ar    1  UNL1       -0.2422
     15 C         139.7928  138.8418  158.9381 C.ar    1  UNL1        0.1175
     16 C         141.0672  139.6041  159.1495 C.ar    1  UNL1        0.0989
     17 C         143.7704  140.9676  161.5782 C.3     1  UNL1        0.1194
     18 C         144.3315  139.9207  162.4942 C.3     1  UNL1        0.0279
     19 C         145.2142  140.3209  163.6390 C.3     1  UNL1        0.0341
     20 C         145.5359  141.7680  163.8678 C.3     1  UNL1        0.1423
     21 O         144.9748  142.8149  162.9518 O.3     1  UNL1       -0.3518
     22 C         144.0921  142.4147  161.8070 C.3     1  UNL1        0.1647
     23 C         141.2881  138.9089  165.6471 C.ar    1  UNL1        0.0216
     24 C         142.7332  138.6109  165.9172 C.ar    1  UNL1        0.0064
     25 C         143.2871  138.7768  167.3013 C.ar    1  UNL1        0.0577
     26 C         142.3960  139.2407  168.4151 C.ar    1  UNL1        0.2249
     27 N         140.9510  139.5387  168.1449 N.ar    1  UNL1       -0.2101
     28 C         140.3970  139.3729  166.7609 C.ar    1  UNL1        0.1021
     29 O         142.9500  139.4066  169.7992 O.3     1  UNL1       -0.4602
     30 C         143.1808  140.7806  170.3549 C.3     1  UNL1        0.2085
     31 C         143.3414  141.9478  169.4267 C.3     1  UNL1        0.0647
     32 C         142.1397  142.7383  169.0009 C.3     1  UNL1        0.0759
     33 N         141.6930  142.7111  167.5692 N.3     1  UNL1       -0.2726
     34 C         142.6761  142.3903  166.4827 C.3     1  UNL1        0.0721
     35 C         142.2293  142.3632  165.0510 C.3     1  UNL1        0.0174
     36 C         140.7994  142.6569  164.7059 C.3     1  UNL1        0.0029
     37 C         139.8163  142.9777  165.7924 C.3     1  UNL1        0.0174
     38 C         140.2630  143.0048  167.2241 C.3     1  UNL1        0.0721
@<TRIPOS>BOND
     1     1     2    1
     2     2     3   ar
     3     3     4    2
     4     3     5   ar
     5    17     5    1
     6    17    18    1
     7    18    19    1
     8    19    20    1
     9    20    21    1
    10    21    22    1
    11     5     6   ar
    12     6     7   ar
    13     7     8   ar
    14     8     9   ar
    15     9    23    1
    16    23    24   ar
    17    24    25   ar
    18    25    26   ar
    19    26    29    1
    20    29    30    1
    21    30    31    1
    22    31    32    1
    23    32    33    1
    24    33    34    1
    25    34    35    1
    26    35    36    1
    27    36    37    1
    28    37    38    1
    29    26    27   ar
    30    27    28   ar
    31     9    10   ar
    32    10    11    1
    33    10    12   ar
    34    12    13   ar
    35    13    14   ar
    36    14    15   ar
    37    15    16   ar
    38    16     2   ar
    39    22    17    1
    40    16     6   ar
    41    13     7   ar
    42    28    23   ar
    43    38    33    1
@<TRIPOS>MOLECULE
*****
 38 43 0 0 0
SMALL
GASTEIGER

@<TRIPOS>ATOM
      1 C         139.8727  140.2360  170.4310 C.3     1  UNL1        0.1352
      2 N         140.0962  140.3635  168.9533 N.ar    1  UNL1       -0.2765
      3 C         139.2402  139.7643  167.8772 C.ar    1  UNL1        0.3317
      4 O         138.0101  138.9325  168.0898 O.2     1  UNL1       -0.2463
      5 N         139.8300  140.1430  166.5510 N.ar    1  UNL1       -0.2792
      6 C         141.0507  140.9761  166.8075 C.ar    1  UNL1        0.0826
      7 C         142.0336  141.6283  165.8810 C.ar    1  UNL1        0.0352
      8 C         141.8691  141.4921  164.3963 C.ar    1  UNL1        0.0053
      9 C         142.8521  142.1443  163.4698 C.ar    1  UNL1        0.0291
     10 C         143.9996  142.9327  164.0280 C.ar    1  UNL1        0.1416
     11 F         144.9825  143.5850  163.1014 F       1  UNL1       -0.2041
     12 C         144.1641  143.0690  165.5127 C.ar    1  UNL1        0.0488
     13 C         143.1811  142.4168  166.4392 C.ar    1  UNL1        0.0850
     14 N         143.3457  142.5531  167.9239 N.ar    1  UNL1       -0.2422
     15 C         142.3627  141.9009  168.8504 C.ar    1  UNL1        0.1175
     16 C         141.2152  141.1124  168.2922 C.ar    1  UNL1        0.0989
     17 C         139.2935  139.7563  165.2047 C.3     1  UNL1        0.1194
     18 C         139.7815  138.5069  164.5334 C.3     1  UNL1        0.0279
     19 C         139.2449  138.1202  163.1870 C.3     1  UNL1        0.0341
     20 C         138.2204  138.9830  162.5119 C.3     1  UNL1        0.1423
     21 O         137.7324  140.2325  163.1832 O.3     1  UNL1       -0.3518
     22 C         138.2689  140.6191  164.5296 C.3     1  UNL1        0.1647
     23 C         142.6876  142.0080  161.9850 C.ar    1  UNL1        0.0216
     24 C         143.1474  143.1085  161.0754 C.ar    1  UNL1        0.0064
     25 C         142.9830  142.9723  159.5907 C.ar    1  UNL1        0.0577
     26 C         142.3586  141.7356  159.0156 C.ar    1  UNL1        0.2249
     27 N         141.8987  140.6351  159.9253 N.ar    1  UNL1       -0.2101
     28 C         142.0632  140.7713  161.4100 C.ar    1  UNL1        0.1021
     29 O         142.1941  141.5993  157.5309 O.3     1  UNL1       -0.4602
     30 C         141.0539  142.2835  156.8367 C.3     1  UNL1        0.2085
     31 C         139.7965  142.5981  157.5916 C.3     1  UNL1        0.0647
     32 C         139.5997  143.9612  158.1860 C.3     1  UNL1        0.0759
     33 N         139.6768  144.1497  159.6721 N.3     1  UNL1       -0.2726
     34 C         139.1760  143.0753  160.5913 C.3     1  UNL1        0.0721
     35 C         139.2531  143.2638  162.0775 C.3     1  UNL1        0.0174
     36 C         139.8310  144.5266  162.6443 C.3     1  UNL1        0.0029
     37 C         140.3318  145.6010  161.7251 C.3     1  UNL1        0.0174
     38 C         140.2547  145.4125  160.2390 C.3     1  UNL1        0.0721
@<TRIPOS>BOND
     1     1     2    1
     2     2     3   ar
     3     3     4    2
     4     3     5   ar
     5    17     5    1
     6    17    18    1
     7    18    19    1
     8    19    20    1
     9    20    21    1
    10    21    22    1
    11     5     6   ar
    12     6     7   ar
    13     7     8   ar
    14     8     9   ar
    15     9    23    1
    16    23    24   ar
    17    24    25   ar
    18    25    26   ar
    19    26    29    1
    20    29    30    1
    21    30    31    1
    22    31    32    1
    23    32    33    1
    24    33    34    1
    25    34    35    1
    26    35    36    1
    27    36    37    1
    28    37    38    1
    29    26    27   ar
    30    27    28   ar
    31     9    10   ar
    32    10    11    1
    33    10    12   ar
    34    12    13   ar
    35    13    14   ar
    36    14    15   ar
    37    15    16   ar
    38    16     2   ar
    39    22    17    1
    40    16     6   ar
    41    13     7   ar
    42    28    23   ar
    43    38    33    1
@<TRIPOS>MOLECULE
*****
 38 43 0 0 0
SMALL
GASTEIGER

@<TRIPOS>ATOM
      1 C         140.1068  140.4011  169.7986 C.3     1  UNL1        0.1352
      2 N         140.6349  140.3488  168.3956 N.ar    1  UNL1       -0.2765
      3 C         141.9603  140.8765  167.9322 C.ar    1  UNL1        0.3317
      4 O         142.9904  141.5492  168.7904 O.2     1  UNL1       -0.2463
      5 N         142.0748  140.6134  166.4599 N.ar    1  UNL1       -0.2792
      6 C         140.8202  139.9231  166.0134 C.ar    1  UNL1        0.0826
      7 C         140.3731  139.4223  164.6720 C.ar    1  UNL1        0.0352
      8 C         141.2631  139.5859  163.4756 C.ar    1  UNL1        0.0053
      9 C         140.8160  139.0851  162.1342 C.ar    1  UNL1        0.0291
     10 C         139.4790  138.4208  161.9892 C.ar    1  UNL1        0.1416
     11 F         139.0319  137.9200  160.6477 F       1  UNL1       -0.2041
     12 C         138.5891  138.2572  163.1855 C.ar    1  UNL1        0.0488
     13 C         139.0361  138.7580  164.5270 C.ar    1  UNL1        0.0850
     14 N         138.1462  138.5944  165.7233 N.ar    1  UNL1       -0.2422
     15 C         138.5933  139.0952  167.0646 C.ar    1  UNL1        0.1175
     16 C         139.9303  139.7595  167.2097 C.ar    1  UNL1        0.0989
     17 C         143.2395  140.9768  165.5873 C.3     1  UNL1        0.1194
     18 C         144.0387  139.8994  164.9160 C.3     1  UNL1        0.0279
     19 C         145.2033  140.2629  164.0434 C.3     1  UNL1        0.0341
     20 C         145.5689  141.7036  163.8420 C.3     1  UNL1        0.1423
     21 O         144.7698  142.7809  164.5133 O.3     1  UNL1       -0.3518
     22 C         143.6051  142.4175  165.3859 C.3     1  UNL1        0.1647
     23 C         141.7060  139.2486  160.9378 C.ar    1  UNL1        0.0216
     24 C         141.1257  139.6866  159.6258 C.ar    1  UNL1        0.0064
     25 C         142.0156  139.8502  158.4294 C.ar    1  UNL1        0.0577
     26 C         143.4857  139.5758  158.5451 C.ar    1  UNL1        0.2249
     27 N         144.0659  139.1378  159.8571 N.ar    1  UNL1       -0.2101
     28 C         143.1761  138.9742  161.0535 C.ar    1  UNL1        0.1021
     29 O         144.3756  139.7393  157.3487 O.3     1  UNL1       -0.4602
     30 C         144.8861  141.0991  156.9740 C.3     1  UNL1        0.2085
     31 C         144.9233  142.1946  157.9978 C.3     1  UNL1        0.0647
     32 C         143.7805  143.1603  158.1048 C.3     1  UNL1        0.0759
     33 N         142.8773  143.1239  159.3018 N.3     1  UNL1       -0.2726
     34 C         143.4261  142.7402  160.6440 C.3     1  UNL1        0.0721
     35 C         142.5228  142.7038  161.8411 C.3     1  UNL1        0.0174
     36 C         141.0709  143.0511  161.6959 C.3     1  UNL1        0.0029
     37 C         140.5221  143.4349  160.3537 C.3     1  UNL1        0.0174
     38 C         141.4253  143.4713  159.1567 C.3     1  UNL1        0.0721
@<TRIPOS>BOND
     1     1     2    1
     2     2     3   ar
     3     3     4    2
     4     3     5   ar
     5    17     5    1
     6    17    18    1
     7    18    19    1
     8    19    20    1
     9    20    21    1
    10    21    22    1
    11     5     6   ar
    12     6     7   ar
    13     7     8   ar
    14     8     9   ar
    15     9    23    1
    16    23    24   ar
    17    24    25   ar
    18    25    26   ar
    19    26    29    1
    20    29    30    1
    21    30    31    1
    22    31    32    1
    23    32    33    1
    24    33    34    1
    25    34    35    1
    26    35    36    1
    27    36    37    1
    28    37    38    1
    29    26    27   ar
    30    27    28   ar
    31     9    10   ar
    32    10    11    1
    33    10    12   ar
    34    12    13   ar
    35    13    14   ar
    36    14    15   ar
    37    15    16   ar
    38    16     2   ar
    39    22    17    1
    40    16     6   ar
    41    13     7   ar
    42    28    23   ar
    43    38    33    1
@<TRIPOS>MOLECULE
*****
 38 43 0 0 0
SMALL
GASTEIGER

@<TRIPOS>ATOM
      1 C         140.1944  140.1629  170.5980 C.3     1  UNL1        0.1352
      2 N         140.3035  140.3852  169.1186 N.ar    1  UNL1       -0.2765
      3 C         139.3474  139.8815  168.0784 C.ar    1  UNL1        0.3317
      4 O         138.1141  139.0670  168.3349 O.2     1  UNL1       -0.2463
      5 N         139.8410  140.3353  166.7365 N.ar    1  UNL1       -0.2792
      6 C         141.1022  141.1194  166.9474 C.ar    1  UNL1        0.0826
      7 C         142.0272  141.8093  165.9892 C.ar    1  UNL1        0.0352
      8 C         141.7413  141.7785  164.5169 C.ar    1  UNL1        0.0053
      9 C         142.6664  142.4684  163.5587 C.ar    1  UNL1        0.0291
     10 C         143.8773  143.1891  164.0726 C.ar    1  UNL1        0.1416
     11 F         144.8024  143.8791  163.1142 F       1  UNL1       -0.2041
     12 C         144.1632  143.2200  165.5447 C.ar    1  UNL1        0.0488
     13 C         143.2381  142.5301  166.5031 C.ar    1  UNL1        0.0850
     14 N         143.5240  142.5610  167.9752 N.ar    1  UNL1       -0.2422
     15 C         142.5990  141.8711  168.9335 C.ar    1  UNL1        0.1175
     16 C         141.3881  141.1503  168.4196 C.ar    1  UNL1        0.0989
     17 C         139.1880  140.0543  165.4157 C.3     1  UNL1        0.1194
     18 C         138.3720  141.1169  164.7412 C.3     1  UNL1        0.0279
     19 C         137.7190  140.8359  163.4204 C.3     1  UNL1        0.0341
     20 C         137.8820  139.4922  162.7739 C.3     1  UNL1        0.1423
     21 O         138.6980  138.4296  163.4484 O.3     1  UNL1       -0.3518
     22 C         139.3509  138.7106  164.7692 C.3     1  UNL1        0.1647
     23 C         142.3805  142.4375  162.0864 C.ar    1  UNL1        0.0216
     24 C         141.0410  141.9778  161.5920 C.ar    1  UNL1        0.0064
     25 C         140.7551  141.9470  160.1199 C.ar    1  UNL1        0.0577
     26 C         141.8087  142.3758  159.1422 C.ar    1  UNL1        0.2249
     27 N         143.1482  142.8354  159.6366 N.ar    1  UNL1       -0.2101
     28 C         143.4341  142.8663  161.1087 C.ar    1  UNL1        0.1021
     29 O         141.5228  142.3449  157.6699 O.3     1  UNL1       -0.4602
     30 C         141.3889  141.0307  156.9593 C.3     1  UNL1        0.2085
     31 C         142.3139  139.8988  157.2953 C.3     1  UNL1        0.0647
     32 C         141.8603  138.8089  158.2208 C.3     1  UNL1        0.0759
     33 N         142.3293  138.7913  159.6455 N.3     1  UNL1       -0.2726
     34 C         141.4169  138.2989  160.7294 C.3     1  UNL1        0.0721
     35 C         141.8860  138.2812  162.1541 C.3     1  UNL1        0.0174
     36 C         143.2675  138.7559  162.4948 C.3     1  UNL1        0.0029
     37 C         144.1799  139.2483  161.4108 C.3     1  UNL1        0.0174
     38 C         143.7109  139.2660  159.9862 C.3     1  UNL1        0.0721
@<TRIPOS>BOND
     1     1     2    1
     2     2     3   ar
     3     3     4    2
     4     3     5   ar
     5    17     5    1
     6    17    18    1
     7    18    19    1
     8    19    20    1
     9    20    21    1
    10    21    22    1
    11     5     6   ar
    12     6     7   ar
    13     7     8   ar
    14     8     9   ar
    15     9    23    1
    16    23    24   ar
    17    24    25   ar
    18    25    26   ar
    19    26    29    1
    20    29    30    1
    21    30    31    1
    22    31    32    1
    23    32    33    1
    24    33    34    1
    25    34    35    1
    26    35    36    1
    27    36    37    1
    28    37    38    1
    29    26    27   ar
    30    27    28   ar
    31     9    10   ar
    32    10    11    1
    33    10    12   ar
    34    12    13   ar
    35    13    14   ar
    36    14    15   ar
    37    15    16   ar
    38    16     2   ar
    39    22    17    1
    40    16     6   ar
    41    13     7   ar
    42    28    23   ar
    43    38    33    1
@<TRIPOS>MOLECULE
*****
 38 43 0 0 0
SMALL
GASTEIGER

@<TRIPOS>ATOM
      1 C         140.6895  143.5526  156.3476 C.3     1  UNL1        0.1352
      2 N         140.4786  143.1483  157.7766 N.ar    1  UNL1       -0.2765
      3 C         140.0201  144.0450  158.8881 C.ar    1  UNL1        0.3317
      4 O         139.6920  145.5036  158.7659 O.2     1  UNL1       -0.2463
      5 N         139.9473  143.2271  160.1434 N.ar    1  UNL1       -0.2792
      6 C         140.3608  141.8249  159.8077 C.ar    1  UNL1        0.0826
      7 C         140.4808  140.5861  160.6450 C.ar    1  UNL1        0.0352
      8 C         140.1524  140.6349  162.1079 C.ar    1  UNL1        0.0053
      9 C         140.2723  139.3961  162.9451 C.ar    1  UNL1        0.0291
     10 C         140.7207  138.1086  162.3196 C.ar    1  UNL1        0.1416
     11 F         140.8406  136.8698  163.1570 F       1  UNL1       -0.2041
     12 C         141.0490  138.0598  160.8568 C.ar    1  UNL1        0.0488
     13 C         140.9291  139.2986  160.0195 C.ar    1  UNL1        0.0850
     14 N         141.2574  139.2498  158.5567 N.ar    1  UNL1       -0.2422
     15 C         141.1375  140.4886  157.7195 C.ar    1  UNL1        0.1175
     16 C         140.6892  141.7761  158.3450 C.ar    1  UNL1        0.0989
     17 C         139.5337  143.7242  161.4969 C.3     1  UNL1        0.1194
     18 C         138.2007  143.3346  162.0638 C.3     1  UNL1        0.0279
     19 C         137.7870  143.8317  163.4172 C.3     1  UNL1        0.0341
     20 C         138.7062  144.7184  164.2038 C.3     1  UNL1        0.1423
     21 O         140.0392  145.1081  163.6368 O.3     1  UNL1       -0.3518
     22 C         140.4529  144.6110  162.2834 C.3     1  UNL1        0.1647
     23 C         139.9440  139.4449  164.4080 C.ar    1  UNL1        0.0216
     24 C         141.0273  139.2487  165.4267 C.ar    1  UNL1        0.0064
     25 C         140.6990  139.2974  166.8895 C.ar    1  UNL1        0.0577
     26 C         139.2874  139.5423  167.3335 C.ar    1  UNL1        0.2249
     27 N         138.2040  139.7386  166.3148 N.ar    1  UNL1       -0.2101
     28 C         138.5323  139.6898  164.8520 C.ar    1  UNL1        0.1021
     29 O         138.9590  139.5911  168.7964 O.3     1  UNL1       -0.4602
     30 C         139.9092  140.2425  169.7570 C.3     1  UNL1        0.2085
     31 C         139.6027  141.6034  170.3083 C.3     1  UNL1        0.0647
     32 C         140.1217  142.8279  169.6146 C.3     1  UNL1        0.0759
     33 N         140.9804  142.6904  168.3925 N.3     1  UNL1       -0.2726
     34 C         140.3875  142.9043  167.0313 C.3     1  UNL1        0.0721
     35 C         141.2462  142.7667  165.8091 C.3     1  UNL1        0.0174
     36 C         142.6978  142.4153  165.9481 C.3     1  UNL1        0.0029
     37 C         143.2907  142.2014  167.3092 C.3     1  UNL1        0.0174
     38 C         142.4321  142.3389  168.5314 C.3     1  UNL1        0.0721
@<TRIPOS>BOND
     1     1     2    1
     2     2     3   ar
     3     3     4    2
     4     3     5   ar
     5    17     5    1
     6    17    18    1
     7    18    19    1
     8    19    20    1
     9    20    21    1
    10    21    22    1
    11     5     6   ar
    12     6     7   ar
    13     7     8   ar
    14     8     9   ar
    15     9    23    1
    16    23    24   ar
    17    24    25   ar
    18    25    26   ar
    19    26    29    1
    20    29    30    1
    21    30    31    1
    22    31    32    1
    23    32    33    1
    24    33    34    1
    25    34    35    1
    26    35    36    1
    27    36    37    1
    28    37    38    1
    29    26    27   ar
    30    27    28   ar
    31     9    10   ar
    32    10    11    1
    33    10    12   ar
    34    12    13   ar
    35    13    14   ar
    36    14    15   ar
    37    15    16   ar
    38    16     2   ar
    39    22    17    1
    40    16     6   ar
    41    13     7   ar
    42    28    23   ar
    43    38    33    1
@<TRIPOS>MOLECULE
*****
 38 43 0 0 0
SMALL
GASTEIGER

@<TRIPOS>ATOM
      1 C         140.7929  144.5192  156.2404 C.3     1  UNL1        0.1352
      2 N         141.0038  144.0038  157.6332 N.ar    1  UNL1       -0.2765
      3 C         140.5334  144.6606  158.8970 C.ar    1  UNL1        0.3317
      4 O         139.7694  145.9482  158.9900 O.2     1  UNL1       -0.2463
      5 N         140.9610  143.8038  160.0516 N.ar    1  UNL1       -0.2792
      6 C         141.6957  142.6175  159.5014 C.ar    1  UNL1        0.0826
      7 C         142.3441  141.4406  160.1682 C.ar    1  UNL1        0.0352
      8 C         142.3176  141.3170  161.6629 C.ar    1  UNL1        0.0053
      9 C         142.9660  140.1402  162.3297 C.ar    1  UNL1        0.0291
     10 C         143.6408  139.0869  161.5019 C.ar    1  UNL1        0.1416
     11 F         144.2892  137.9101  162.1688 F       1  UNL1       -0.2041
     12 C         143.6672  139.2105  160.0073 C.ar    1  UNL1        0.0488
     13 C         143.0189  140.3874  159.3404 C.ar    1  UNL1        0.0850
     14 N         143.0453  140.5110  157.8457 N.ar    1  UNL1       -0.2422
     15 C         142.3970  141.6878  157.1789 C.ar    1  UNL1        0.1175
     16 C         141.7222  142.7410  158.0068 C.ar    1  UNL1        0.0989
     17 C         140.6998  144.0841  161.5019 C.3     1  UNL1        0.1194
     18 C         141.7921  144.6396  162.3670 C.3     1  UNL1        0.0279
     19 C         141.5309  144.9199  163.8172 C.3     1  UNL1        0.0341
     20 C         140.1775  144.6448  164.4024 C.3     1  UNL1        0.1423
     21 O         139.0852  144.0894  163.5373 O.3     1  UNL1       -0.3518
     22 C         139.3464  143.8091  162.0870 C.3     1  UNL1        0.1647
     23 C         142.9396  140.0166  163.8244 C.ar    1  UNL1        0.0216
     24 C         142.6781  138.6844  164.4623 C.ar    1  UNL1        0.0064
     25 C         142.6516  138.5607  165.9569 C.ar    1  UNL1        0.0577
     26 C         142.8867  139.7693  166.8137 C.ar    1  UNL1        0.2249
     27 N         143.1482  141.1015  166.1758 N.ar    1  UNL1       -0.2101
     28 C         143.1746  141.2251  164.6812 C.ar    1  UNL1        0.1021
     29 O         142.8603  139.6457  168.3084 O.3     1  UNL1       -0.4602
     30 C         141.5545  139.7133  169.0436 C.3     1  UNL1        0.2085
     31 C         140.4185  140.5160  168.4822 C.3     1  UNL1        0.0647
     32 C         139.2565  139.8213  167.8363 C.3     1  UNL1        0.0759
     33 N         139.2113  139.6638  166.3453 N.3     1  UNL1       -0.2726
     34 C         139.4560  140.8483  165.4582 C.3     1  UNL1        0.0721
     35 C         139.4107  140.6908  163.9672 C.3     1  UNL1        0.0174
     36 C         139.1209  139.3487  163.3633 C.3     1  UNL1        0.0029
     37 C         138.8763  138.1641  164.2504 C.3     1  UNL1        0.0174
     38 C         138.9215  138.3216  165.7414 C.3     1  UNL1        0.0721
@<TRIPOS>BOND
     1     1     2    1
     2     2     3   ar
     3     3     4    2
     4     3     5   ar
     5    17     5    1
     6    17    18    1
     7    18    19    1
     8    19    20    1
     9    20    21    1
    10    21    22    1
    11     5     6   ar
    12     6     7   ar
    13     7     8   ar
    14     8     9   ar
    15     9    23    1
    16    23    24   ar
    17    24    25   ar
    18    25    26   ar
    19    26    29    1
    20    29    30    1
    21    30    31    1
    22    31    32    1
    23    32    33    1
    24    33    34    1
    25    34    35    1
    26    35    36    1
    27    36    37    1
    28    37    38    1
    29    26    27   ar
    30    27    28   ar
    31     9    10   ar
    32    10    11    1
    33    10    12   ar
    34    12    13   ar
    35    13    14   ar
    36    14    15   ar
    37    15    16   ar
    38    16     2   ar
    39    22    17    1
    40    16     6   ar
    41    13     7   ar
    42    28    23   ar
    43    38    33    1
@<TRIPOS>MOLECULE
*****
 38 43 0 0 0
SMALL
GASTEIGER

@<TRIPOS>ATOM
      1 C         140.7659  139.6697  169.8917 C.3     1  UNL1        0.1352
      2 N         140.6734  140.2798  168.5245 N.ar    1  UNL1       -0.2765
      3 C         139.5585  140.0763  167.5418 C.ar    1  UNL1        0.3317
      4 O         138.3403  139.2271  167.7539 O.2     1  UNL1       -0.2463
      5 N         139.8756  140.8712  166.3099 N.ar    1  UNL1       -0.2792
      6 C         141.1865  141.5659  166.5312 C.ar    1  UNL1        0.0826
      7 C         141.9949  142.4842  165.6632 C.ar    1  UNL1        0.0352
      8 C         141.5018  142.8497  164.2945 C.ar    1  UNL1        0.0053
      9 C         142.3102  143.7679  163.4266 C.ar    1  UNL1        0.0291
     10 C         143.6117  144.3206  163.9273 C.ar    1  UNL1        0.1416
     11 F         144.4201  145.2389  163.0593 F       1  UNL1       -0.2041
     12 C         144.1047  143.9551  165.2959 C.ar    1  UNL1        0.0488
     13 C         143.2963  143.0368  166.1639 C.ar    1  UNL1        0.0850
     14 N         143.7894  142.6713  167.5326 N.ar    1  UNL1       -0.2422
     15 C         142.9810  141.7531  168.4005 C.ar    1  UNL1        0.1175
     16 C         141.6795  141.2004  167.8998 C.ar    1  UNL1        0.0989
     17 C         139.0302  140.9565  165.0738 C.3     1  UNL1        0.1194
     18 C         138.2612  142.2094  164.7760 C.3     1  UNL1        0.0279
     19 C         137.4158  142.2946  163.5398 C.3     1  UNL1        0.0341
     20 C         137.3395  141.1270  162.6014 C.3     1  UNL1        0.1423
     21 O         138.1086  139.8741  162.8992 O.3     1  UNL1       -0.3518
     22 C         138.9539  139.7888  164.1353 C.3     1  UNL1        0.1647
     23 C         141.8171  144.1335  162.0578 C.ar    1  UNL1        0.0216
     24 C         140.5521  144.9246  161.9029 C.ar    1  UNL1        0.0064
     25 C         140.0591  145.2902  160.5343 C.ar    1  UNL1        0.0577
     26 C         140.8309  144.8646  159.3206 C.ar    1  UNL1        0.2249
     27 N         142.0959  144.0735  159.4755 N.ar    1  UNL1       -0.2101
     28 C         142.5890  143.7080  160.8442 C.ar    1  UNL1        0.1021
     29 O         140.3379  145.2302  157.9519 O.3     1  UNL1       -0.4602
     30 C         141.1841  146.0817  157.0525 C.3     1  UNL1        0.2085
     31 C         141.1911  145.8335  155.5732 C.3     1  UNL1        0.0647
     32 C         140.1830  146.5123  154.6941 C.3     1  UNL1        0.0759
     33 N         139.6138  147.8414  155.0933 N.3     1  UNL1       -0.2726
     34 C         139.8072  149.0366  154.2078 C.3     1  UNL1        0.0721
     35 C         139.2379  150.3658  154.6072 C.3     1  UNL1        0.0174
     36 C         138.4754  150.4997  155.8919 C.3     1  UNL1        0.0029
     37 C         138.2821  149.3044  156.7774 C.3     1  UNL1        0.0174
     38 C         138.8513  147.9753  156.3781 C.3     1  UNL1        0.0721
@<TRIPOS>BOND
     1     1     2    1
     2     2     3   ar
     3     3     4    2
     4     3     5   ar
     5    17     5    1
     6    17    18    1
     7    18    19    1
     8    19    20    1
     9    20    21    1
    10    21    22    1
    11     5     6   ar
    12     6     7   ar
    13     7     8   ar
    14     8     9   ar
    15     9    23    1
    16    23    24   ar
    17    24    25   ar
    18    25    26   ar
    19    26    29    1
    20    29    30    1
    21    30    31    1
    22    31    32    1
    23    32    33    1
    24    33    34    1
    25    34    35    1
    26    35    36    1
    27    36    37    1
    28    37    38    1
    29    26    27   ar
    30    27    28   ar
    31     9    10   ar
    32    10    11    1
    33    10    12   ar
    34    12    13   ar
    35    13    14   ar
    36    14    15   ar
    37    15    16   ar
    38    16     2   ar
    39    22    17    1
    40    16     6   ar
    41    13     7   ar
    42    28    23   ar
    43    38    33    1
