@<TRIPOS>MOLECULE
*****
 35 39 0 0 0
SMALL
GASTEIGER

@<TRIPOS>ATOM
      1 N         141.6295  144.1620  161.7003 N.ar    1  UNL1       -0.1967
      2 N         142.8357  143.7544  162.4933 N.ar    1  UNL1       -0.1666
      3 C         142.4001  143.5110  163.9078 C.ar    1  UNL1        0.0850
      4 C         140.9244  143.7682  163.9890 C.ar    1  UNL1        0.0334
      5 C         139.9529  143.6881  165.1291 C.ar    1  UNL1        0.0027
      6 C         138.5053  144.0102  164.9048 C.ar    1  UNL1        0.0001
      7 C         138.0290  144.4125  163.5405 C.ar    1  UNL1        0.0015
      8 C         139.0005  144.4926  162.4004 C.ar    1  UNL1        0.0193
      9 C         140.4482  144.1705  162.6247 C.ar    1  UNL1        0.0870
     10 C         141.2845  146.0458  154.4761 C.3     1  UNL1        0.0137
     11 C         141.3057  145.7064  155.9370 C.3     1  UNL1        0.0932
     12 C         142.4477  144.8132  155.5520 C.3     1  UNL1        0.0137
     13 C         140.1594  146.6705  156.0167 C.2     1  UNL1        0.2302
     14 O         139.5657  147.4313  154.8683 O.2     1  UNL1       -0.2744
     15 N         139.7109  146.7401  157.4464 N.am    1  UNL1       -0.2692
     16 C         140.5800  145.8191  158.2503 C.ar    1  UNL1        0.1363
     17 N         140.6012  145.4797  159.7112 N.ar    1  UNL1       -0.1951
     18 C         141.6082  144.5014  160.2393 C.ar    1  UNL1        0.2553
     19 N         142.5939  143.8625  159.3065 N.ar    1  UNL1       -0.1957
     20 C         142.5727  144.2019  157.8456 C.ar    1  UNL1        0.1276
     21 N         143.5584  143.5630  156.9127 N.pl3   1  UNL1       -0.3427
     22 C         141.5657  145.1802  157.3175 C.ar    1  UNL1        0.0484
     23 H         138.9752  147.2933  157.7957 H       1  UNL1        0.1563
     24 H         144.2193  142.9209  157.2594 H       1  UNL1        0.1437
     25 H         143.5444  143.7857  155.9539 H       1  UNL1        0.1437
     26 C         143.2846  143.0853  165.0420 C.3     1  UNL1        0.0785
     27 C         143.2756  141.6587  165.5053 C.ar    1  UNL1        0.0410
     28 C         144.0033  140.6097  164.7178 C.ar    1  UNL1        0.1388
     29 F         144.7399  140.9873  163.4669 F       1  UNL1       -0.2044
     30 C         143.9942  139.1831  165.1811 C.ar    1  UNL1        0.0318
     31 C         143.2575  138.8055  166.4320 C.ar    1  UNL1        0.0342
     32 C         142.5299  139.8544  167.2195 C.ar    1  UNL1        0.1672
     33 F         141.7932  139.4767  168.4704 F       1  UNL1       -0.2018
     34 C         142.5389  141.2810  166.7561 C.ar    1  UNL1        0.1659
     35 F         141.8112  142.3300  167.5437 F       1  UNL1       -0.2020
@<TRIPOS>BOND
     1    10    11    1
     2    11    12    1
     3    11    13    1
     4    13    14    2
     5    13    15   am
     6    15    16    1
     7    16    17   ar
     8    17    18   ar
     9    18     1    1
    10     1     2   ar
    11     2     3   ar
    12     3    26    1
    13    26    27    1
    14    27    28   ar
    15    28    29    1
    16    28    30   ar
    17    30    31   ar
    18    31    32   ar
    19    32    33    1
    20    32    34   ar
    21    34    35    1
    22     3     4   ar
    23     4     5   ar
    24     5     6   ar
    25     6     7   ar
    26     7     8   ar
    27     8     9   ar
    28    18    19   ar
    29    19    20   ar
    30    20    21    1
    31    20    22   ar
    32    22    11    1
    33    22    16   ar
    34     9     1   ar
    35    34    27   ar
    36     9     4   ar
    37    15    23    1
    38    21    24    1
    39    21    25    1
@<TRIPOS>MOLECULE
*****
 35 39 0 0 0
SMALL
GASTEIGER

@<TRIPOS>ATOM
      1 N         141.1042  141.4388  163.4300 N.ar    1  UNL1       -0.1967
      2 N         142.0193  141.3411  164.6146 N.ar    1  UNL1       -0.1666
      3 C         141.5277  142.2977  165.6602 C.ar    1  UNL1        0.0850
      4 C         140.3088  142.9866  165.1218 C.ar    1  UNL1        0.0334
      5 C         139.4034  144.0286  165.7085 C.ar    1  UNL1        0.0027
      6 C         138.2363  144.5399  164.9171 C.ar    1  UNL1        0.0001
      7 C         137.9746  144.0091  163.5387 C.ar    1  UNL1        0.0015
      8 C         138.8800  142.9670  162.9519 C.ar    1  UNL1        0.0193
      9 C         140.0471  142.4558  163.7435 C.ar    1  UNL1        0.0870
     10 C         141.3963  137.5530  157.0525 C.3     1  UNL1        0.0137
     11 C         141.2754  138.3350  158.3269 C.3     1  UNL1        0.0932
     12 C         142.7707  138.2202  158.3547 C.3     1  UNL1        0.0137
     13 C         139.8054  138.2863  158.0326 C.2     1  UNL1        0.2302
     14 O         139.1647  137.6257  156.8481 O.2     1  UNL1       -0.2744
     15 N         139.0885  139.0142  159.1309 N.am    1  UNL1       -0.2692
     16 C         140.1155  139.5127  160.1040 C.ar    1  UNL1        0.1363
     17 N         139.9945  140.2947  161.3782 N.ar    1  UNL1       -0.1951
     18 C         141.2252  140.6568  162.1556 C.ar    1  UNL1        0.2553
     19 N         142.5768  140.2371  161.6587 N.ar    1  UNL1       -0.1957
     20 C         142.6977  139.4551  160.3844 C.ar    1  UNL1        0.1276
     21 N         144.0493  139.0353  159.8874 N.pl3   1  UNL1       -0.3427
     22 C         141.4671  139.0929  159.6070 C.ar    1  UNL1        0.0484
     23 H         138.1149  139.1422  159.2009 H       1  UNL1        0.1563
     24 H         144.8571  139.2730  160.3976 H       1  UNL1        0.1437
     25 H         144.1287  138.5221  159.0510 H       1  UNL1        0.1437
     26 C         142.1463  142.5254  167.0076 C.3     1  UNL1        0.0785
     27 C         141.6263  141.7879  168.2058 C.ar    1  UNL1        0.0410
     28 C         140.5806  142.4169  169.0780 C.ar    1  UNL1        0.1388
     29 F         140.0548  143.7834  168.7520 F       1  UNL1       -0.2044
     30 C         140.0607  141.6795  170.2762 C.ar    1  UNL1        0.0318
     31 C         140.5865  140.3130  170.6022 C.ar    1  UNL1        0.0342
     32 C         141.6321  139.6840  169.7301 C.ar    1  UNL1        0.1672
     33 F         142.1579  138.3175  170.0561 F       1  UNL1       -0.2018
     34 C         142.1521  140.4215  168.5318 C.ar    1  UNL1        0.1659
     35 F         143.1979  139.7924  167.6596 F       1  UNL1       -0.2020
@<TRIPOS>BOND
     1    10    11    1
     2    11    12    1
     3    11    13    1
     4    13    14    2
     5    13    15   am
     6    15    16    1
     7    16    17   ar
     8    17    18   ar
     9    18     1    1
    10     1     2   ar
    11     2     3   ar
    12     3    26    1
    13    26    27    1
    14    27    28   ar
    15    28    29    1
    16    28    30   ar
    17    30    31   ar
    18    31    32   ar
    19    32    33    1
    20    32    34   ar
    21    34    35    1
    22     3     4   ar
    23     4     5   ar
    24     5     6   ar
    25     6     7   ar
    26     7     8   ar
    27     8     9   ar
    28    18    19   ar
    29    19    20   ar
    30    20    21    1
    31    20    22   ar
    32    22    11    1
    33    22    16   ar
    34     9     1   ar
    35    34    27   ar
    36     9     4   ar
    37    15    23    1
    38    21    24    1
    39    21    25    1
@<TRIPOS>MOLECULE
*****
 35 39 0 0 0
SMALL
GASTEIGER

@<TRIPOS>ATOM
      1 N         139.7321  138.8946  160.9877 N.ar    1  UNL1       -0.1967
      2 N         139.7667  137.9755  162.1726 N.ar    1  UNL1       -0.1666
      3 C         139.1137  138.6798  163.3248 C.ar    1  UNL1        0.0850
      4 C         138.6755  140.0342  162.8520 C.ar    1  UNL1        0.0334
      5 C         137.9779  141.1638  163.5500 C.ar    1  UNL1        0.0027
      6 C         137.6625  142.4261  162.8038 C.ar    1  UNL1        0.0001
      7 C         138.0446  142.5589  161.3593 C.ar    1  UNL1        0.0015
      8 C         138.7422  141.4293  160.6612 C.ar    1  UNL1        0.0193
      9 C         139.0577  140.1669  161.4076 C.ar    1  UNL1        0.0870
     10 C         142.7194  137.5095  154.2784 C.3     1  UNL1        0.0137
     11 C         142.1752  137.8100  155.6436 C.3     1  UNL1        0.0932
     12 C         140.9008  137.2475  155.0871 C.3     1  UNL1        0.0137
     13 C         143.5633  138.3097  155.9146 C.2     1  UNL1        0.2302
     14 O         144.7038  138.3165  154.9403 O.2     1  UNL1       -0.2744
     15 N         143.6105  138.8015  157.3309 N.am    1  UNL1       -0.2692
     16 C         142.2517  138.6057  157.9352 C.ar    1  UNL1        0.1363
     17 N         141.7075  138.9063  159.3003 N.ar    1  UNL1       -0.1951
     18 C         140.2763  138.5940  159.6225 C.ar    1  UNL1        0.2553
     19 N         139.3891  137.9813  158.5797 N.ar    1  UNL1       -0.1957
     20 C         139.9333  137.6807  157.2146 C.ar    1  UNL1        0.1276
     21 N         139.0461  137.0679  156.1718 N.pl3   1  UNL1       -0.3427
     22 C         141.3646  137.9929  156.8923 C.ar    1  UNL1        0.0484
     23 H         144.3956  139.1854  157.7842 H       1  UNL1        0.1563
     24 H         138.1067  136.8630  156.3833 H       1  UNL1        0.1437
     25 H         139.4033  136.8707  155.2758 H       1  UNL1        0.1437
     26 C         138.9310  138.1268  164.7072 C.3     1  UNL1        0.0785
     27 C         139.5706  138.8106  165.8790 C.ar    1  UNL1        0.0410
     28 C         141.0410  139.1069  165.8637 C.ar    1  UNL1        0.1388
     29 F         141.8718  138.7194  164.6765 F       1  UNL1       -0.2044
     30 C         141.6805  139.7907  167.0356 C.ar    1  UNL1        0.0318
     31 C         140.8497  140.1782  168.2228 C.ar    1  UNL1        0.0342
     32 C         139.3794  139.8819  168.2382 C.ar    1  UNL1        0.1672
     33 F         138.5485  140.2694  169.4255 F       1  UNL1       -0.2018
     34 C         138.7398  139.1981  167.0663 C.ar    1  UNL1        0.1659
     35 F         137.2694  138.9018  167.0816 F       1  UNL1       -0.2020
@<TRIPOS>BOND
     1    10    11    1
     2    11    12    1
     3    11    13    1
     4    13    14    2
     5    13    15   am
     6    15    16    1
     7    16    17   ar
     8    17    18   ar
     9    18     1    1
    10     1     2   ar
    11     2     3   ar
    12     3    26    1
    13    26    27    1
    14    27    28   ar
    15    28    29    1
    16    28    30   ar
    17    30    31   ar
    18    31    32   ar
    19    32    33    1
    20    32    34   ar
    21    34    35    1
    22     3     4   ar
    23     4     5   ar
    24     5     6   ar
    25     6     7   ar
    26     7     8   ar
    27     8     9   ar
    28    18    19   ar
    29    19    20   ar
    30    20    21    1
    31    20    22   ar
    32    22    11    1
    33    22    16   ar
    34     9     1   ar
    35    34    27   ar
    36     9     4   ar
    37    15    23    1
    38    21    24    1
    39    21    25    1
@<TRIPOS>MOLECULE
*****
 35 39 0 0 0
SMALL
GASTEIGER

@<TRIPOS>ATOM
      1 N         141.3160  144.1453  161.5309 N.ar    1  UNL1       -0.1967
      2 N         140.0745  144.1038  162.3717 N.ar    1  UNL1       -0.1666
      3 C         140.4689  143.6986  163.7611 C.ar    1  UNL1        0.0850
      4 C         141.9542  143.4897  163.7789 C.ar    1  UNL1        0.0334
      5 C         142.8976  143.0838  164.8721 C.ar    1  UNL1        0.0027
      6 C         144.3645  142.9539  164.5871 C.ar    1  UNL1        0.0001
      7 C         144.8881  143.2300  163.2088 C.ar    1  UNL1        0.0015
      8 C         143.9446  143.6359  162.1156 C.ar    1  UNL1        0.0193
      9 C         142.4777  143.7658  162.4006 C.ar    1  UNL1        0.0870
     10 C         141.4146  146.1247  154.3247 C.3     1  UNL1        0.0137
     11 C         141.3468  145.7665  155.7798 C.3     1  UNL1        0.0932
     12 C         142.4982  144.8637  155.4497 C.3     1  UNL1        0.0137
     13 C         140.2095  146.7442  155.8057 C.2     1  UNL1        0.2302
     14 O         139.6929  147.5271  154.6351 O.2     1  UNL1       -0.2744
     15 N         139.6795  146.8016  157.2078 N.am    1  UNL1       -0.2692
     16 C         140.4892  145.8594  158.0484 C.ar    1  UNL1        0.1363
     17 N         140.4213  145.5013  159.5034 N.ar    1  UNL1       -0.1951
     18 C         141.3839  144.5035  160.0758 C.ar    1  UNL1        0.2553
     19 N         142.4143  143.8637  159.1933 N.ar    1  UNL1       -0.1957
     20 C         142.4822  144.2219  157.7383 C.ar    1  UNL1        0.1276
     21 N         143.5127  143.5821  156.8557 N.pl3   1  UNL1       -0.3427
     22 C         141.5196  145.2197  157.1658 C.ar    1  UNL1        0.0484
     23 H         138.9315  147.3597  157.5213 H       1  UNL1        0.1563
     24 H         144.1445  142.9272  157.2315 H       1  UNL1        0.1437
     25 H         143.5572  143.8172  155.9007 H       1  UNL1        0.1437
     26 C         139.5409  143.5317  164.9277 C.3     1  UNL1        0.0785
     27 C         139.3255  142.1733  165.5262 C.ar    1  UNL1        0.0410
     28 C         138.4227  141.1880  164.8449 C.ar    1  UNL1        0.1388
     29 F         137.7353  141.5612  163.5649 F       1  UNL1       -0.2044
     30 C         138.2074  139.8296  165.4434 C.ar    1  UNL1        0.0318
     31 C         138.8948  139.4565  166.7233 C.ar    1  UNL1        0.0342
     32 C         139.7975  140.4416  167.4047 C.ar    1  UNL1        0.1672
     33 F         140.4849  140.0684  168.6847 F       1  UNL1       -0.2018
     34 C         140.0129  141.8001  166.8061 C.ar    1  UNL1        0.1659
     35 F         140.9157  142.7853  167.4875 F       1  UNL1       -0.2020
@<TRIPOS>BOND
     1    10    11    1
     2    11    12    1
     3    11    13    1
     4    13    14    2
     5    13    15   am
     6    15    16    1
     7    16    17   ar
     8    17    18   ar
     9    18     1    1
    10     1     2   ar
    11     2     3   ar
    12     3    26    1
    13    26    27    1
    14    27    28   ar
    15    28    29    1
    16    28    30   ar
    17    30    31   ar
    18    31    32   ar
    19    32    33    1
    20    32    34   ar
    21    34    35    1
    22     3     4   ar
    23     4     5   ar
    24     5     6   ar
    25     6     7   ar
    26     7     8   ar
    27     8     9   ar
    28    18    19   ar
    29    19    20   ar
    30    20    21    1
    31    20    22   ar
    32    22    11    1
    33    22    16   ar
    34     9     1   ar
    35    34    27   ar
    36     9     4   ar
    37    15    23    1
    38    21    24    1
    39    21    25    1
@<TRIPOS>MOLECULE
*****
 35 39 0 0 0
SMALL
GASTEIGER

@<TRIPOS>ATOM
      1 N         140.9313  141.4298  163.3703 N.ar    1  UNL1       -0.1967
      2 N         141.9005  141.2594  164.5024 N.ar    1  UNL1       -0.1666
      3 C         141.5203  142.2232  165.5871 C.ar    1  UNL1        0.0850
      4 C         140.3161  142.9893  165.1253 C.ar    1  UNL1        0.0334
      5 C         139.5040  144.0700  165.7754 C.ar    1  UNL1        0.0027
      6 C         138.3280  144.6603  165.0555 C.ar    1  UNL1        0.0001
      7 C         137.9640  144.1699  163.6854 C.ar    1  UNL1        0.0015
      8 C         138.7760  143.0892  163.0353 C.ar    1  UNL1        0.0193
      9 C         139.9521  142.4989  163.7553 C.ar    1  UNL1        0.0870
     10 C         141.2853  137.6135  156.9541 C.3     1  UNL1        0.0137
     11 C         141.2767  138.3780  158.2447 C.3     1  UNL1        0.0932
     12 C         139.7872  138.3481  158.0704 C.3     1  UNL1        0.0137
     13 C         142.7680  138.2481  158.1492 C.2     1  UNL1        0.2302
     14 O         143.5247  137.5609  157.0514 O.2     1  UNL1       -0.2744
     15 N         143.3698  138.9261  159.3443 N.am    1  UNL1       -0.2692
     16 C         142.2504  139.4750  160.1784 C.ar    1  UNL1        0.1363
     17 N         142.2419  140.2395  161.4688 N.ar    1  UNL1       -0.1951
     18 C         140.9398  140.6653  162.0797 C.ar    1  UNL1        0.2553
     19 N         139.6462  140.3265  161.4002 N.ar    1  UNL1       -0.1957
     20 C         139.6547  139.5620  160.1097 C.ar    1  UNL1        0.1276
     21 N         138.3611  139.2233  159.4301 N.pl3   1  UNL1       -0.3427
     22 C         140.9568  139.1363  159.4988 C.ar    1  UNL1        0.0484
     23 H         144.3307  138.9982  159.5458 H       1  UNL1        0.1563
     24 H         137.5065  139.5027  159.8310 H       1  UNL1        0.1437
     25 H         138.3667  138.7215  158.5831 H       1  UNL1        0.1437
     26 C         142.2212  142.3915  166.9026 C.3     1  UNL1        0.0785
     27 C         141.7180  141.6708  168.1180 C.ar    1  UNL1        0.0410
     28 C         140.6776  142.3081  168.9908 C.ar    1  UNL1        0.1388
     29 F         140.1406  143.6660  168.6480 F       1  UNL1       -0.2044
     30 C         140.1745  141.5874  170.2062 C.ar    1  UNL1        0.0318
     31 C         140.7115  140.2295  170.5489 C.ar    1  UNL1        0.0342
     32 C         141.7518  139.5922  169.6763 C.ar    1  UNL1        0.1672
     33 F         142.2889  138.2342  170.0191 F       1  UNL1       -0.2018
     34 C         142.2550  140.3129  168.4608 C.ar    1  UNL1        0.1659
     35 F         143.2954  139.6756  167.5881 F       1  UNL1       -0.2020
@<TRIPOS>BOND
     1    10    11    1
     2    11    12    1
     3    11    13    1
     4    13    14    2
     5    13    15   am
     6    15    16    1
     7    16    17   ar
     8    17    18   ar
     9    18     1    1
    10     1     2   ar
    11     2     3   ar
    12     3    26    1
    13    26    27    1
    14    27    28   ar
    15    28    29    1
    16    28    30   ar
    17    30    31   ar
    18    31    32   ar
    19    32    33    1
    20    32    34   ar
    21    34    35    1
    22     3     4   ar
    23     4     5   ar
    24     5     6   ar
    25     6     7   ar
    26     7     8   ar
    27     8     9   ar
    28    18    19   ar
    29    19    20   ar
    30    20    21    1
    31    20    22   ar
    32    22    11    1
    33    22    16   ar
    34     9     1   ar
    35    34    27   ar
    36     9     4   ar
    37    15    23    1
    38    21    24    1
    39    21    25    1
@<TRIPOS>MOLECULE
*****
 35 39 0 0 0
SMALL
GASTEIGER

@<TRIPOS>ATOM
      1 N         141.7890  144.0300  161.7327 N.ar    1  UNL1       -0.1967
      2 N         142.9587  143.6023  162.5686 N.ar    1  UNL1       -0.1666
      3 C         142.4795  143.4215  163.9785 C.ar    1  UNL1        0.0850
      4 C         141.0135  143.7375  164.0138 C.ar    1  UNL1        0.0334
      5 C         140.0121  143.7314  165.1305 C.ar    1  UNL1        0.0027
      6 C         138.5840  144.1014  164.8593 C.ar    1  UNL1        0.0001
      7 C         138.1572  144.4775  163.4713 C.ar    1  UNL1        0.0015
      8 C         139.1587  144.4835  162.3546 C.ar    1  UNL1        0.0193
      9 C         140.5868  144.1136  162.6258 C.ar    1  UNL1        0.0870
     10 C         142.1560  145.2793  154.3732 C.3     1  UNL1        0.0137
     11 C         142.1283  144.9866  155.8442 C.3     1  UNL1        0.0932
     12 C         141.0337  146.0119  155.8678 C.3     1  UNL1        0.0137
     13 C         143.2287  144.0225  155.5130 C.2     1  UNL1        0.2302
     14 O         143.8044  143.7760  154.1500 O.2     1  UNL1       -0.2744
     15 N         143.6523  143.3483  156.7842 N.am    1  UNL1       -0.2692
     16 C         142.8137  143.8957  157.9010 C.ar    1  UNL1        0.1363
     17 N         142.7861  143.6029  159.3719 N.ar    1  UNL1       -0.1951
     18 C         141.8166  144.3227  160.2617 C.ar    1  UNL1        0.2553
     19 N         140.8747  145.3353  159.6807 N.ar    1  UNL1       -0.1957
     20 C         140.9023  145.6280  158.2098 C.ar    1  UNL1        0.1276
     21 N         139.9604  146.6406  157.6288 N.pl3   1  UNL1       -0.3427
     22 C         141.8718  144.9082  157.3200 C.ar    1  UNL1        0.0484
     23 H         144.3570  142.6663  156.8705 H       1  UNL1        0.1563
     24 H         139.3241  147.1130  158.2129 H       1  UNL1        0.1437
     25 H         139.9785  146.8327  156.6634 H       1  UNL1        0.1437
     26 C         143.3188  142.9989  165.1477 C.3     1  UNL1        0.0785
     27 C         143.3049  141.5699  165.6033 C.ar    1  UNL1        0.0410
     28 C         143.9832  140.5141  164.7817 C.ar    1  UNL1        0.1388
     29 F         144.6755  140.8873  163.5044 F       1  UNL1       -0.2044
     30 C         143.9693  139.0851  165.2374 C.ar    1  UNL1        0.0318
     31 C         143.2770  138.7119  166.5146 C.ar    1  UNL1        0.0342
     32 C         142.5987  139.7676  167.3362 C.ar    1  UNL1        0.1672
     33 F         141.9064  139.3944  168.6136 F       1  UNL1       -0.2018
     34 C         142.6126  141.1967  166.8806 C.ar    1  UNL1        0.1659
     35 F         141.9343  142.2525  167.7022 F       1  UNL1       -0.2020
@<TRIPOS>BOND
     1    10    11    1
     2    11    12    1
     3    11    13    1
     4    13    14    2
     5    13    15   am
     6    15    16    1
     7    16    17   ar
     8    17    18   ar
     9    18     1    1
    10     1     2   ar
    11     2     3   ar
    12     3    26    1
    13    26    27    1
    14    27    28   ar
    15    28    29    1
    16    28    30   ar
    17    30    31   ar
    18    31    32   ar
    19    32    33    1
    20    32    34   ar
    21    34    35    1
    22     3     4   ar
    23     4     5   ar
    24     5     6   ar
    25     6     7   ar
    26     7     8   ar
    27     8     9   ar
    28    18    19   ar
    29    19    20   ar
    30    20    21    1
    31    20    22   ar
    32    22    11    1
    33    22    16   ar
    34     9     1   ar
    35    34    27   ar
    36     9     4   ar
    37    15    23    1
    38    21    24    1
    39    21    25    1
@<TRIPOS>MOLECULE
*****
 35 39 0 0 0
SMALL
GASTEIGER

@<TRIPOS>ATOM
      1 N         141.9469  144.0020  161.7175 N.ar    1  UNL1       -0.1967
      2 N         143.1442  143.5314  162.4890 N.ar    1  UNL1       -0.1666
      3 C         142.7310  143.3471  163.9191 C.ar    1  UNL1        0.0850
      4 C         141.2783  143.7038  164.0315 C.ar    1  UNL1        0.0334
      5 C         140.3342  143.7124  165.1971 C.ar    1  UNL1        0.0027
      6 C         138.9056  144.1257  165.0020 C.ar    1  UNL1        0.0001
      7 C         138.4210  144.5305  163.6413 C.ar    1  UNL1        0.0015
      8 C         139.3651  144.5219  162.4758 C.ar    1  UNL1        0.0193
      9 C         140.7938  144.1086  162.6709 C.ar    1  UNL1        0.0870
     10 C         141.5275  145.7452  154.4620 C.3     1  UNL1        0.0137
     11 C         141.5650  145.4355  155.9293 C.3     1  UNL1        0.0932
     12 C         142.6754  144.5037  155.5440 C.3     1  UNL1        0.0137
     13 C         140.4466  146.4321  156.0078 C.2     1  UNL1        0.2302
     14 O         139.8539  147.1850  154.8538 O.2     1  UNL1       -0.2744
     15 N         140.0251  146.5435  157.4430 N.am    1  UNL1       -0.2692
     16 C         140.8829  145.6158  158.2515 C.ar    1  UNL1        0.1363
     17 N         140.9203  145.3062  159.7187 N.ar    1  UNL1       -0.1951
     18 C         141.9095  144.3117  160.2503 C.ar    1  UNL1        0.2553
     19 N         142.8612  143.6269  159.3147 N.ar    1  UNL1       -0.1957
     20 C         142.8237  143.9366  157.8475 C.ar    1  UNL1        0.1276
     21 N         143.7754  143.2518  156.9119 N.pl3   1  UNL1       -0.3427
     22 C         141.8346  144.9310  157.3159 C.ar    1  UNL1        0.0484
     23 H         139.3108  147.1237  157.7930 H       1  UNL1        0.1563
     24 H         144.4247  142.5991  157.2609 H       1  UNL1        0.1437
     25 H         143.7509  143.4550  155.9489 H       1  UNL1        0.1437
     26 C         143.6152  142.8869  165.0400 C.3     1  UNL1        0.0785
     27 C         143.2850  141.6290  165.7876 C.ar    1  UNL1        0.0410
     28 C         142.9686  141.6884  167.2526 C.ar    1  UNL1        0.1388
     29 F         142.9823  143.0056  167.9701 F       1  UNL1       -0.2044
     30 C         142.6385  140.4305  168.0001 C.ar    1  UNL1        0.0318
     31 C         142.6248  139.1134  167.2826 C.ar    1  UNL1        0.0342
     32 C         142.9412  139.0540  165.8176 C.ar    1  UNL1        0.1672
     33 F         142.9275  137.7367  165.1001 F       1  UNL1       -0.2018
     34 C         143.2713  140.3118  165.0701 C.ar    1  UNL1        0.1659
     35 F         143.5878  140.2525  163.6050 F       1  UNL1       -0.2020
@<TRIPOS>BOND
     1    10    11    1
     2    11    12    1
     3    11    13    1
     4    13    14    2
     5    13    15   am
     6    15    16    1
     7    16    17   ar
     8    17    18   ar
     9    18     1    1
    10     1     2   ar
    11     2     3   ar
    12     3    26    1
    13    26    27    1
    14    27    28   ar
    15    28    29    1
    16    28    30   ar
    17    30    31   ar
    18    31    32   ar
    19    32    33    1
    20    32    34   ar
    21    34    35    1
    22     3     4   ar
    23     4     5   ar
    24     5     6   ar
    25     6     7   ar
    26     7     8   ar
    27     8     9   ar
    28    18    19   ar
    29    19    20   ar
    30    20    21    1
    31    20    22   ar
    32    22    11    1
    33    22    16   ar
    34     9     1   ar
    35    34    27   ar
    36     9     4   ar
    37    15    23    1
    38    21    24    1
    39    21    25    1
@<TRIPOS>MOLECULE
*****
 35 39 0 0 0
SMALL
GASTEIGER

@<TRIPOS>ATOM
      1 N         140.9977  141.3521  163.4457 N.ar    1  UNL1       -0.1967
      2 N         141.7225  141.5512  164.7438 N.ar    1  UNL1       -0.1666
      3 C         141.4125  140.3826  165.6317 C.ar    1  UNL1        0.0850
      4 C         140.4961  139.4613  164.8823 C.ar    1  UNL1        0.0334
      5 C         139.8619  138.1543  165.2556 C.ar    1  UNL1        0.0027
      6 C         138.9715  137.4464  164.2779 C.ar    1  UNL1        0.0001
      7 C         138.7151  138.0456  162.9268 C.ar    1  UNL1        0.0015
      8 C         139.3493  139.3526  162.5536 C.ar    1  UNL1        0.0193
      9 C         140.2397  140.0605  163.5313 C.ar    1  UNL1        0.0870
     10 C         141.3284  145.7825  157.4358 C.3     1  UNL1        0.0137
     11 C         141.3002  144.8531  158.6129 C.3     1  UNL1        0.0932
     12 C         140.3935  145.8887  159.2090 C.3     1  UNL1        0.0137
     13 C         142.2128  144.0119  157.7706 C.2     1  UNL1        0.2302
     14 O         142.6946  144.3449  156.3897 O.2     1  UNL1       -0.2744
     15 N         142.5590  142.7790  158.5518 N.am    1  UNL1       -0.2692
     16 C         141.8604  142.8584  159.8768 C.ar    1  UNL1        0.1363
     17 N         141.8322  141.9290  161.0538 N.ar    1  UNL1       -0.1951
     18 C         141.0259  142.2815  162.2686 C.ar    1  UNL1        0.2553
     19 N         140.2479  143.5634  162.3063 N.ar    1  UNL1       -0.1957
     20 C         140.2761  144.4928  161.1293 C.ar    1  UNL1        0.1276
     21 N         139.4981  145.7747  161.1670 N.pl3   1  UNL1       -0.3427
     22 C         141.0824  144.1403  159.9145 C.ar    1  UNL1        0.0484
     23 H         143.1424  142.0464  158.2482 H       1  UNL1        0.1563
     24 H         138.9689  146.0060  161.9643 H       1  UNL1        0.1437
     25 H         139.5166  146.3847  160.3945 H       1  UNL1        0.1437
     26 C         141.9282  140.1723  167.0244 C.3     1  UNL1        0.0785
     27 C         141.3684  140.9756  168.1608 C.ar    1  UNL1        0.0410
     28 C         140.0193  140.6395  168.7237 C.ar    1  UNL1        0.1388
     29 F         139.2299  139.5002  168.1503 F       1  UNL1       -0.2044
     30 C         139.4595  141.4428  169.8601 C.ar    1  UNL1        0.0318
     31 C         140.2489  142.5821  170.4335 C.ar    1  UNL1        0.0342
     32 C         141.5980  142.9181  169.8706 C.ar    1  UNL1        0.1672
     33 F         142.3873  144.0576  170.4441 F       1  UNL1       -0.2018
     34 C         142.1578  142.1149  168.7342 C.ar    1  UNL1        0.1659
     35 F         143.5069  142.4509  168.1713 F       1  UNL1       -0.2020
@<TRIPOS>BOND
     1    10    11    1
     2    11    12    1
     3    11    13    1
     4    13    14    2
     5    13    15   am
     6    15    16    1
     7    16    17   ar
     8    17    18   ar
     9    18     1    1
    10     1     2   ar
    11     2     3   ar
    12     3    26    1
    13    26    27    1
    14    27    28   ar
    15    28    29    1
    16    28    30   ar
    17    30    31   ar
    18    31    32   ar
    19    32    33    1
    20    32    34   ar
    21    34    35    1
    22     3     4   ar
    23     4     5   ar
    24     5     6   ar
    25     6     7   ar
    26     7     8   ar
    27     8     9   ar
    28    18    19   ar
    29    19    20   ar
    30    20    21    1
    31    20    22   ar
    32    22    11    1
    33    22    16   ar
    34     9     1   ar
    35    34    27   ar
    36     9     4   ar
    37    15    23    1
    38    21    24    1
    39    21    25    1
@<TRIPOS>MOLECULE
*****
 35 39 0 0 0
SMALL
GASTEIGER

@<TRIPOS>ATOM
      1 N         141.1037  140.5083  163.3339 N.ar    1  UNL1       -0.1967
      2 N         141.7999  139.8890  164.5094 N.ar    1  UNL1       -0.1666
      3 C         141.5721  140.7714  165.7007 C.ar    1  UNL1        0.0850
      4 C         140.7351  141.9362  165.2615 C.ar    1  UNL1        0.0334
      5 C         140.1991  143.1239  166.0045 C.ar    1  UNL1        0.0027
      6 C         139.3738  144.1488  165.2849 C.ar    1  UNL1        0.0001
      7 C         139.0842  143.9862  163.8220 C.ar    1  UNL1        0.0015
      8 C         139.6202  142.7986  163.0790 C.ar    1  UNL1        0.0193
      9 C         140.4456  141.7735  163.7987 C.ar    1  UNL1        0.0870
     10 C         141.2428  137.6933  156.4119 C.3     1  UNL1        0.0137
     11 C         141.2752  138.2428  157.8073 C.3     1  UNL1        0.0932
     12 C         139.8341  138.5661  157.5449 C.3     1  UNL1        0.0137
     13 C         142.7094  137.8046  157.7779 C.2     1  UNL1        0.2302
     14 O         143.4041  137.1373  156.6280 O.2     1  UNL1       -0.2744
     15 N         143.3270  138.1509  159.1003 N.am    1  UNL1       -0.2692
     16 C         142.2745  138.8031  159.9469 C.ar    1  UNL1        0.1363
     17 N         142.3069  139.3525  161.3422 N.ar    1  UNL1       -0.1951
     18 C         141.0713  139.9588  161.9384 C.ar    1  UNL1        0.2553
     19 N         139.8031  140.0156  161.1393 N.ar    1  UNL1       -0.1957
     20 C         139.7707  139.4661  159.7440 C.ar    1  UNL1        0.1276
     21 N         138.5025  139.5229  158.9449 N.pl3   1  UNL1       -0.3427
     22 C         141.0063  138.8599  159.1478 C.ar    1  UNL1        0.0484
     23 H         144.2595  137.9801  159.3659 H       1  UNL1        0.1563
     24 H         137.6915  139.9209  159.3362 H       1  UNL1        0.1437
     25 H         138.4812  139.1623  158.0290 H       1  UNL1        0.1437
     26 C         142.0903  140.5313  167.0877 C.3     1  UNL1        0.0785
     27 C         141.3883  141.1384  168.2661 C.ar    1  UNL1        0.0410
     28 C         142.0166  142.2821  169.0060 C.ar    1  UNL1        0.1388
     29 F         143.3470  142.8186  168.5674 F       1  UNL1       -0.2044
     30 C         141.3146  142.8891  170.1843 C.ar    1  UNL1        0.0318
     31 C         139.9843  142.3525  170.6229 C.ar    1  UNL1        0.0342
     32 C         139.3560  141.2090  169.8831 C.ar    1  UNL1        0.1672
     33 F         138.0256  140.6724  170.3217 F       1  UNL1       -0.2018
     34 C         140.0580  140.6019  168.7047 C.ar    1  UNL1        0.1659
     35 F         139.4297  139.4583  167.9648 F       1  UNL1       -0.2020
@<TRIPOS>BOND
     1    10    11    1
     2    11    12    1
     3    11    13    1
     4    13    14    2
     5    13    15   am
     6    15    16    1
     7    16    17   ar
     8    17    18   ar
     9    18     1    1
    10     1     2   ar
    11     2     3   ar
    12     3    26    1
    13    26    27    1
    14    27    28   ar
    15    28    29    1
    16    28    30   ar
    17    30    31   ar
    18    31    32   ar
    19    32    33    1
    20    32    34   ar
    21    34    35    1
    22     3     4   ar
    23     4     5   ar
    24     5     6   ar
    25     6     7   ar
    26     7     8   ar
    27     8     9   ar
    28    18    19   ar
    29    19    20   ar
    30    20    21    1
    31    20    22   ar
    32    22    11    1
    33    22    16   ar
    34     9     1   ar
    35    34    27   ar
    36     9     4   ar
    37    15    23    1
    38    21    24    1
    39    21    25    1
