@<TRIPOS>MOLECULE
*****
 29 33 0 0 0
SMALL
GASTEIGER

@<TRIPOS>ATOM
      1 C         138.7947  142.2194  158.6469 C.ar    1  UNL1        0.1845
      2 N         137.8960  141.2925  157.8832 N.ar    1  UNL1       -0.1274
      3 N         137.5838  140.1193  158.7642 N.ar    1  UNL1       -0.1316
      4 C         138.2894  140.3211  160.0724 C.ar    1  UNL1        0.1615
      5 N         139.0379  141.6191  159.9999 N.ar    1  UNL1       -0.2944
      6 C         139.8441  142.0866  161.1752 C.3     1  UNL1        0.1302
      7 C         139.9019  141.2562  162.4231 C.3     1  UNL1        0.1186
      8 N         139.1535  139.9583  162.4956 N.am    1  UNL1       -0.2688
      9 C         139.2112  139.1279  163.7434 C.2     1  UNL1        0.2493
     10 O         138.4628  137.8299  163.8159 O.2     1  UNL1       -0.2699
     11 C         138.3472  139.4907  161.3202 C.3     1  UNL1        0.1343
     12 C         137.5988  138.1928  161.3927 C.3     1  UNL1        0.0298
     13 C         140.0912  146.2378  155.4765 C.3     1  UNL1        0.0594
     14 C         139.9483  145.3656  156.6883 C.ar    1  UNL1        0.0887
     15 N         139.2559  144.0360  156.7411 N.ar    1  UNL1       -0.2396
     16 C         139.3523  143.5185  158.1457 C.ar    1  UNL1        0.1237
     17 C         140.1044  144.5283  158.9611 C.ar    1  UNL1        0.0588
     18 S         140.4727  145.6698  158.0604 S.2     1  UNL1       -0.0701
     19 C         140.0174  139.5954  164.9187 C.ar    1  UNL1        0.0536
     20 C         139.3852  140.4674  165.9627 C.ar    1  UNL1        0.0045
     21 C         140.1915  140.9349  167.1381 C.ar    1  UNL1        0.0006
     22 C         141.6299  140.5305  167.2694 C.ar    1  UNL1        0.0060
     23 C         142.2622  139.6585  166.2254 C.ar    1  UNL1        0.0006
     24 C         141.4560  139.1910  165.0501 C.ar    1  UNL1        0.0045
     25 C         142.4362  140.9980  168.4447 C.ar    1  UNL1        0.0295
     26 C         143.2078  142.2815  168.5301 C.ar    1  UNL1        0.0070
     27 C         143.8609  142.3408  169.8792 C.ar    1  UNL1        0.0075
     28 C         143.4929  141.0940  170.6276 C.ar    1  UNL1        0.0354
     29 S         142.6123  140.2641  169.7410 S.2     1  UNL1       -0.0864
@<TRIPOS>BOND
     1    13    14    1
     2    14    15   ar
     3    15    16   ar
     4    16     1    1
     5     1     2   ar
     6     2     3   ar
     7     3     4   ar
     8     4     5   ar
     9     5     6    1
    10     6     7    1
    11     7     8    1
    12     8     9   am
    13     9    10    2
    14     9    19    1
    15    19    20   ar
    16    20    21   ar
    17    21    22   ar
    18    22    25    1
    19    25    26   ar
    20    26    27   ar
    21    27    28   ar
    22    28    29   ar
    23    22    23   ar
    24    23    24   ar
    25     8    11    1
    26    11    12    1
    27    16    17   ar
    28    17    18   ar
    29    18    14   ar
    30     5     1   ar
    31    24    19   ar
    32    11     4    1
    33    29    25   ar
@<TRIPOS>MOLECULE
*****
 29 33 0 0 0
SMALL
GASTEIGER

@<TRIPOS>ATOM
      1 C         138.7100  139.6421  155.9152 C.ar    1  UNL1        0.1845
      2 N         139.5310  139.0099  154.8307 N.ar    1  UNL1       -0.1274
      3 N         140.7059  138.3339  155.4731 N.ar    1  UNL1       -0.1316
      4 C         140.6110  138.5484  156.9546 C.ar    1  UNL1        0.1615
      5 N         139.3775  139.3569  157.2279 N.ar    1  UNL1       -0.2944
      6 C         139.0214  139.7289  158.6367 C.3     1  UNL1        0.1302
      7 C         139.8989  139.2925  159.7723 C.3     1  UNL1        0.1186
      8 N         141.1325  138.4840  159.4991 N.am    1  UNL1       -0.2688
      9 C         142.0100  138.0475  160.6346 C.2     1  UNL1        0.2493
     10 O         143.2436  137.2391  160.3613 O.2     1  UNL1       -0.2699
     11 C         141.4885  138.1119  158.0902 C.3     1  UNL1        0.1343
     12 C         142.7221  137.3035  157.8169 C.3     1  UNL1        0.0298
     13 C         133.5963  140.9111  155.5687 C.3     1  UNL1        0.0594
     14 C         135.0932  141.0058  155.5619 C.ar    1  UNL1        0.0887
     15 N         136.0490  139.8818  155.8325 N.ar    1  UNL1       -0.2396
     16 C         137.4437  140.4225  155.7212 C.ar    1  UNL1        0.1237
     17 C         137.3500  141.8806  155.3818 C.ar    1  UNL1        0.0588
     18 S         135.8973  142.2411  155.2834 S.2     1  UNL1       -0.0701
     19 C         141.6540  138.4196  162.0434 C.ar    1  UNL1        0.0536
     20 C         141.9701  139.7921  162.5594 C.ar    1  UNL1        0.0045
     21 C         141.6140  140.1641  163.9682 C.ar    1  UNL1        0.0006
     22 C         140.9418  139.1636  164.8611 C.ar    1  UNL1        0.0060
     23 C         140.6257  137.7911  164.3451 C.ar    1  UNL1        0.0006
     24 C         140.9818  137.4190  162.9363 C.ar    1  UNL1        0.0045
     25 C         140.5857  139.5356  166.2699 C.ar    1  UNL1        0.0295
     26 C         139.2011  139.5906  166.8442 C.ar    1  UNL1        0.0070
     27 C         139.3114  140.0069  168.2810 C.ar    1  UNL1        0.0075
     28 C         140.7642  140.2092  168.5948 C.ar    1  UNL1        0.0354
     29 S         141.5518  139.9179  167.3518 S.2     1  UNL1       -0.0864
@<TRIPOS>BOND
     1    13    14    1
     2    14    15   ar
     3    15    16   ar
     4    16     1    1
     5     1     2   ar
     6     2     3   ar
     7     3     4   ar
     8     4     5   ar
     9     5     6    1
    10     6     7    1
    11     7     8    1
    12     8     9   am
    13     9    10    2
    14     9    19    1
    15    19    20   ar
    16    20    21   ar
    17    21    22   ar
    18    22    25    1
    19    25    26   ar
    20    26    27   ar
    21    27    28   ar
    22    28    29   ar
    23    22    23   ar
    24    23    24   ar
    25     8    11    1
    26    11    12    1
    27    16    17   ar
    28    17    18   ar
    29    18    14   ar
    30     5     1   ar
    31    24    19   ar
    32    11     4    1
    33    29    25   ar
@<TRIPOS>MOLECULE
*****
 29 33 0 0 0
SMALL
GASTEIGER

@<TRIPOS>ATOM
      1 C         142.7021  139.9990  158.1830 C.ar    1  UNL1        0.1845
      2 N         141.8745  139.0804  157.3337 N.ar    1  UNL1       -0.1274
      3 N         140.7781  138.5196  158.1902 N.ar    1  UNL1       -0.1316
      4 C         140.9282  139.0916  159.5687 C.ar    1  UNL1        0.1615
      5 N         142.1173  140.0059  159.5643 N.ar    1  UNL1       -0.2944
      6 C         142.5140  140.7266  160.8185 C.3     1  UNL1        0.1302
      7 C         141.7215  140.5330  162.0774 C.3     1  UNL1        0.1186
      8 N         140.5324  139.6187  162.0818 N.am    1  UNL1       -0.2688
      9 C         139.7399  139.4250  163.3405 C.2     1  UNL1        0.2493
     10 O         138.5507  138.5107  163.3450 O.2     1  UNL1       -0.2699
     11 C         140.1357  138.8980  160.8274 C.3     1  UNL1        0.1343
     12 C         138.9466  137.9837  160.8319 C.3     1  UNL1        0.0298
     13 C         147.0885  141.4118  155.6053 C.3     1  UNL1        0.0594
     14 C         145.9199  141.4239  156.5455 C.ar    1  UNL1        0.0887
     15 N         144.8805  140.3500  156.6741 N.ar    1  UNL1       -0.2396
     16 C         143.9037  140.7745  157.7304 C.ar    1  UNL1        0.1237
     17 C         144.3394  142.1107  158.2547 C.ar    1  UNL1        0.0588
     18 S         145.5855  142.5120  157.5224 S.2     1  UNL1       -0.0701
     19 C         140.1365  140.1457  164.5948 C.ar    1  UNL1        0.0536
     20 C         141.0802  139.4989  165.5650 C.ar    1  UNL1        0.0045
     21 C         141.4768  140.2197  166.8193 C.ar    1  UNL1        0.0006
     22 C         140.9298  141.5872  167.1034 C.ar    1  UNL1        0.0060
     23 C         139.9862  142.2340  166.1332 C.ar    1  UNL1        0.0006
     24 C         139.5895  141.5133  164.8790 C.ar    1  UNL1        0.0045
     25 C         141.3265  142.3079  168.3577 C.ar    1  UNL1        0.0295
     26 C         140.4902  143.3050  169.1036 C.ar    1  UNL1        0.0070
     27 C         141.2759  143.7714  170.2932 C.ar    1  UNL1        0.0075
     28 C         142.5979  143.0626  170.2825 C.ar    1  UNL1        0.0354
     29 S         142.6291  142.1581  169.0862 S.2     1  UNL1       -0.0864
@<TRIPOS>BOND
     1    13    14    1
     2    14    15   ar
     3    15    16   ar
     4    16     1    1
     5     1     2   ar
     6     2     3   ar
     7     3     4   ar
     8     4     5   ar
     9     5     6    1
    10     6     7    1
    11     7     8    1
    12     8     9   am
    13     9    10    2
    14     9    19    1
    15    19    20   ar
    16    20    21   ar
    17    21    22   ar
    18    22    25    1
    19    25    26   ar
    20    26    27   ar
    21    27    28   ar
    22    28    29   ar
    23    22    23   ar
    24    23    24   ar
    25     8    11    1
    26    11    12    1
    27    16    17   ar
    28    17    18   ar
    29    18    14   ar
    30     5     1   ar
    31    24    19   ar
    32    11     4    1
    33    29    25   ar
@<TRIPOS>MOLECULE
*****
 29 33 0 0 0
SMALL
GASTEIGER

@<TRIPOS>ATOM
      1 C         138.5065  141.4937  163.3152 C.ar    1  UNL1        0.1845
      2 N         137.8875  142.8445  163.1092 N.ar    1  UNL1       -0.1274
      3 N         137.9068  143.1439  161.6395 N.ar    1  UNL1       -0.1316
      4 C         138.5377  141.9782  160.9372 C.ar    1  UNL1        0.1615
      5 N         138.9083  140.9583  161.9728 N.ar    1  UNL1       -0.2944
      6 C         139.5638  139.6740  161.5598 C.3     1  UNL1        0.1302
      7 C         139.8487  139.4094  160.1110 C.3     1  UNL1        0.1186
      8 N         139.4781  140.4292  159.0753 N.am    1  UNL1       -0.2688
      9 C         139.7629  140.1647  157.6266 C.2     1  UNL1        0.2493
     10 O         139.3923  141.1845  156.5910 O.2     1  UNL1       -0.2699
     11 C         138.8226  141.7136  159.4885 C.3     1  UNL1        0.1343
     12 C         138.4520  142.7335  158.4528 C.3     1  UNL1        0.0298
     13 C         140.0040  140.4348  168.2666 C.3     1  UNL1        0.0594
     14 C         139.3795  140.3134  166.9083 C.ar    1  UNL1        0.0887
     15 N         139.4536  141.3320  165.8095 N.ar    1  UNL1       -0.2396
     16 C         138.6912  140.8002  164.6323 C.ar    1  UNL1        0.1237
     17 C         138.1459  139.4529  165.0034 C.ar    1  UNL1        0.0588
     18 S         138.5713  139.1521  166.4100 S.2     1  UNL1       -0.0701
     19 C         140.4184  138.8803  157.2136 C.ar    1  UNL1        0.0536
     20 C         139.6511  137.8704  156.4127 C.ar    1  UNL1        0.0045
     21 C         140.3067  136.5859  155.9996 C.ar    1  UNL1        0.0006
     22 C         141.7294  136.3114  156.3874 C.ar    1  UNL1        0.0060
     23 C         142.4967  137.3214  157.1883 C.ar    1  UNL1        0.0006
     24 C         141.8412  138.6057  157.6014 C.ar    1  UNL1        0.0045
     25 C         142.3850  135.0270  155.9744 C.ar    1  UNL1        0.0295
     26 C         141.8960  134.0901  154.9099 C.ar    1  UNL1        0.0070
     27 C         142.8534  132.9381  154.8310 C.ar    1  UNL1        0.0075
     28 C         143.9341  133.1630  155.8467 C.ar    1  UNL1        0.0354
     29 S         143.6446  134.4541  156.5534 S.2     1  UNL1       -0.0864
@<TRIPOS>BOND
     1    13    14    1
     2    14    15   ar
     3    15    16   ar
     4    16     1    1
     5     1     2   ar
     6     2     3   ar
     7     3     4   ar
     8     4     5   ar
     9     5     6    1
    10     6     7    1
    11     7     8    1
    12     8     9   am
    13     9    10    2
    14     9    19    1
    15    19    20   ar
    16    20    21   ar
    17    21    22   ar
    18    22    25    1
    19    25    26   ar
    20    26    27   ar
    21    27    28   ar
    22    28    29   ar
    23    22    23   ar
    24    23    24   ar
    25     8    11    1
    26    11    12    1
    27    16    17   ar
    28    17    18   ar
    29    18    14   ar
    30     5     1   ar
    31    24    19   ar
    32    11     4    1
    33    29    25   ar
@<TRIPOS>MOLECULE
*****
 29 33 0 0 0
SMALL
GASTEIGER

@<TRIPOS>ATOM
      1 C         144.1689  140.4324  156.3385 C.ar    1  UNL1        0.1845
      2 N         143.3920  139.9571  155.1466 N.ar    1  UNL1       -0.1274
      3 N         142.1395  139.2975  155.6427 N.ar    1  UNL1       -0.1316
      4 C         142.1423  139.3651  157.1412 C.ar    1  UNL1        0.1615
      5 N         143.3965  140.0666  157.5712 N.ar    1  UNL1       -0.2944
      6 C         143.6733  140.2815  159.0297 C.3     1  UNL1        0.1302
      7 C         142.6958  139.7950  160.0582 C.3     1  UNL1        0.1186
      8 N         141.4416  139.0935  159.6283 N.am    1  UNL1       -0.2688
      9 C         140.4641  138.6070  160.6567 C.2     1  UNL1        0.2493
     10 O         139.2098  137.9056  160.2267 O.2     1  UNL1       -0.2699
     11 C         141.1648  138.8786  158.1697 C.3     1  UNL1        0.1343
     12 C         139.9106  138.1772  157.7397 C.3     1  UNL1        0.0298
     13 C         149.0719  141.8644  155.0005 C.3     1  UNL1        0.0594
     14 C         147.7405  141.8062  155.6887 C.ar    1  UNL1        0.0887
     15 N         146.6266  140.8519  155.3747 N.ar    1  UNL1       -0.2396
     16 C         145.4868  141.1480  156.3037 C.ar    1  UNL1        0.1237
     17 C         145.8962  142.2853  157.1920 C.ar    1  UNL1        0.0588
     18 S         147.2890  142.6920  156.8119 S.2     1  UNL1       -0.0701
     19 C         140.7408  138.8220  162.1152 C.ar    1  UNL1        0.0536
     20 C         140.3458  140.1116  162.7715 C.ar    1  UNL1        0.0045
     21 C         140.6226  140.3265  164.2300 C.ar    1  UNL1        0.0006
     22 C         141.2944  139.2518  165.0322 C.ar    1  UNL1        0.0060
     23 C         141.6894  137.9621  164.3759 C.ar    1  UNL1        0.0006
     24 C         141.4127  137.7472  162.9175 C.ar    1  UNL1        0.0045
     25 C         141.5712  139.4667  166.4907 C.ar    1  UNL1        0.0295
     26 C         142.8319  139.0942  167.2132 C.ar    1  UNL1        0.0070
     27 C         142.6757  139.4891  168.6518 C.ar    1  UNL1        0.0075
     28 C         141.3184  140.1057  168.8185 C.ar    1  UNL1        0.0354
     29 S         140.6358  140.0918  167.4828 S.2     1  UNL1       -0.0864
@<TRIPOS>BOND
     1    13    14    1
     2    14    15   ar
     3    15    16   ar
     4    16     1    1
     5     1     2   ar
     6     2     3   ar
     7     3     4   ar
     8     4     5   ar
     9     5     6    1
    10     6     7    1
    11     7     8    1
    12     8     9   am
    13     9    10    2
    14     9    19    1
    15    19    20   ar
    16    20    21   ar
    17    21    22   ar
    18    22    25    1
    19    25    26   ar
    20    26    27   ar
    21    27    28   ar
    22    28    29   ar
    23    22    23   ar
    24    23    24   ar
    25     8    11    1
    26    11    12    1
    27    16    17   ar
    28    17    18   ar
    29    18    14   ar
    30     5     1   ar
    31    24    19   ar
    32    11     4    1
    33    29    25   ar
@<TRIPOS>MOLECULE
*****
 29 33 0 0 0
SMALL
GASTEIGER

@<TRIPOS>ATOM
      1 C         141.2744  143.1084  159.8871 C.ar    1  UNL1        0.1845
      2 N         140.5224  141.8183  159.7451 N.ar    1  UNL1       -0.1274
      3 N         139.5659  141.9632  158.5988 N.ar    1  UNL1       -0.1316
      4 C         139.7268  143.3428  158.0323 C.ar    1  UNL1        0.1615
      5 N         140.7827  144.0505  158.8285 N.ar    1  UNL1       -0.2944
      6 C         141.1601  145.4615  158.4868 C.3     1  UNL1        0.1302
      7 C         140.4815  146.1647  157.3488 C.3     1  UNL1        0.1186
      8 N         139.4255  145.4569  156.5525 N.am    1  UNL1       -0.2688
      9 C         138.7469  146.1601  155.4146 C.2     1  UNL1        0.2493
     10 O         137.6909  145.4523  154.6184 O.2     1  UNL1       -0.2699
     11 C         139.0481  144.0459  156.8943 C.3     1  UNL1        0.1343
     12 C         137.9922  143.3382  156.0981 C.3     1  UNL1        0.0298
     13 C         143.7959  145.1186  164.0682 C.3     1  UNL1        0.0594
     14 C         143.4915  144.3284  162.8302 C.ar    1  UNL1        0.0887
     15 N         142.1952  144.3365  162.0755 N.ar    1  UNL1       -0.2396
     16 C         142.3325  143.4043  160.9083 C.ar    1  UNL1        0.1237
     17 C         143.7136  142.8200  160.9417 C.ar    1  UNL1        0.0588
     18 S         144.4299  143.3911  162.1295 S.2     1  UNL1       -0.0701
     19 C         139.1243  147.5710  155.0728 C.ar    1  UNL1        0.0536
     20 C         138.5114  148.7146  155.8255 C.ar    1  UNL1        0.0045
     21 C         138.8889  150.1256  155.4837 C.ar    1  UNL1        0.0006
     22 C         139.8791  150.3929  154.3893 C.ar    1  UNL1        0.0060
     23 C         140.4920  149.2493  153.6366 C.ar    1  UNL1        0.0006
     24 C         140.1146  147.8384  153.9783 C.ar    1  UNL1        0.0045
     25 C         140.2566  151.8039  154.0475 C.ar    1  UNL1        0.0295
     26 C         141.6434  152.3027  153.7684 C.ar    1  UNL1        0.0070
     27 C         141.5573  153.7708  153.4732 C.ar    1  UNL1        0.0075
     28 C         140.1172  154.1794  153.5698 C.ar    1  UNL1        0.0354
     29 S         139.3133  152.9637  153.9248 S.2     1  UNL1       -0.0864
@<TRIPOS>BOND
     1    13    14    1
     2    14    15   ar
     3    15    16   ar
     4    16     1    1
     5     1     2   ar
     6     2     3   ar
     7     3     4   ar
     8     4     5   ar
     9     5     6    1
    10     6     7    1
    11     7     8    1
    12     8     9   am
    13     9    10    2
    14     9    19    1
    15    19    20   ar
    16    20    21   ar
    17    21    22   ar
    18    22    25    1
    19    25    26   ar
    20    26    27   ar
    21    27    28   ar
    22    28    29   ar
    23    22    23   ar
    24    23    24   ar
    25     8    11    1
    26    11    12    1
    27    16    17   ar
    28    17    18   ar
    29    18    14   ar
    30     5     1   ar
    31    24    19   ar
    32    11     4    1
    33    29    25   ar
@<TRIPOS>MOLECULE
*****
 29 33 0 0 0
SMALL
GASTEIGER

@<TRIPOS>ATOM
      1 C         140.6633  141.2263  158.0248 C.ar    1  UNL1        0.1845
      2 N         140.4092  142.4306  157.1674 N.ar    1  UNL1       -0.1274
      3 N         140.4349  143.6424  158.0510 N.ar    1  UNL1       -0.1316
      4 C         140.7049  143.1872  159.4545 C.ar    1  UNL1        0.1615
      5 N         140.8460  141.6939  159.4383 N.ar    1  UNL1       -0.2944
      6 C         141.1227  140.9529  160.7128 C.3     1  UNL1        0.1302
      7 C         141.2583  141.7051  162.0035 C.3     1  UNL1        0.1186
      8 N         141.1172  143.1984  162.0196 N.am    1  UNL1       -0.2688
      9 C         141.2527  143.9506  163.3102 C.2     1  UNL1        0.2493
     10 O         141.1116  145.4439  163.3264 O.2     1  UNL1       -0.2699
     11 C         140.8404  143.9394  160.7451 C.3     1  UNL1        0.1343
     12 C         140.6993  145.4327  160.7612 C.3     1  UNL1        0.0298
     13 C         142.4503  136.4040  156.8281 C.3     1  UNL1        0.0594
     14 C         141.5454  137.5875  157.0017 C.ar    1  UNL1        0.0887
     15 N         141.9377  138.9228  157.5615 N.ar    1  UNL1       -0.2396
     16 C         140.7239  139.8041  157.5518 C.ar    1  UNL1        0.1237
     17 C         139.5815  139.0136  156.9862 C.ar    1  UNL1        0.0588
     18 S         140.0892  137.6437  156.6462 S.2     1  UNL1       -0.0701
     19 C         141.5294  143.2096  164.5847 C.ar    1  UNL1        0.0536
     20 C         142.9402  142.8675  164.9622 C.ar    1  UNL1        0.0045
     21 C         143.2169  142.1265  166.2368 C.ar    1  UNL1        0.0006
     22 C         142.0828  141.7275  167.1337 C.ar    1  UNL1        0.0060
     23 C         140.6719  142.0696  166.7561 C.ar    1  UNL1        0.0006
     24 C         140.3952  142.8106  165.4817 C.ar    1  UNL1        0.0045
     25 C         142.3594  140.9864  168.4082 C.ar    1  UNL1        0.0295
     26 C         142.2203  139.5075  168.6162 C.ar    1  UNL1        0.0070
     27 C         142.5987  139.2013  170.0350 C.ar    1  UNL1        0.0075
     28 C         142.9717  140.4911  170.7040 C.ar    1  UNL1        0.0354
     29 S         142.8238  141.5944  169.6985 S.2     1  UNL1       -0.0864
@<TRIPOS>BOND
     1    13    14    1
     2    14    15   ar
     3    15    16   ar
     4    16     1    1
     5     1     2   ar
     6     2     3   ar
     7     3     4   ar
     8     4     5   ar
     9     5     6    1
    10     6     7    1
    11     7     8    1
    12     8     9   am
    13     9    10    2
    14     9    19    1
    15    19    20   ar
    16    20    21   ar
    17    21    22   ar
    18    22    25    1
    19    25    26   ar
    20    26    27   ar
    21    27    28   ar
    22    28    29   ar
    23    22    23   ar
    24    23    24   ar
    25     8    11    1
    26    11    12    1
    27    16    17   ar
    28    17    18   ar
    29    18    14   ar
    30     5     1   ar
    31    24    19   ar
    32    11     4    1
    33    29    25   ar
@<TRIPOS>MOLECULE
*****
 29 33 0 0 0
SMALL
GASTEIGER

@<TRIPOS>ATOM
      1 C         140.4810  138.2183  156.6387 C.ar    1  UNL1        0.1845
      2 N         139.8515  138.9269  155.4761 N.ar    1  UNL1       -0.1274
      3 N         139.1048  140.1148  156.0064 N.ar    1  UNL1       -0.1316
      4 C         139.2728  140.1405  157.4968 C.ar    1  UNL1        0.1615
      5 N         140.1234  138.9684  157.8876 N.ar    1  UNL1       -0.2944
      6 C         140.4624  138.7355  159.3300 C.3     1  UNL1        0.1302
      7 C         139.9508  139.6748  160.3818 C.3     1  UNL1        0.1186
      8 N         139.1002  140.8469  159.9910 N.am    1  UNL1       -0.2688
      9 C         138.5887  141.7861  161.0427 C.2     1  UNL1        0.2493
     10 O         137.7381  142.9582  160.6519 O.2     1  UNL1       -0.2699
     11 C         138.7613  141.0797  158.5484 C.3     1  UNL1        0.1343
     12 C         137.9107  142.2518  158.1576 C.3     1  UNL1        0.0298
     13 C         142.1786  133.3679  155.4255 C.3     1  UNL1        0.0594
     14 C         142.1010  134.7480  156.0078 C.ar    1  UNL1        0.0887
     15 N         140.9860  135.7302  155.8025 N.ar    1  UNL1       -0.2396
     16 C         141.3207  136.9776  156.5654 C.ar    1  UNL1        0.1237
     17 C         142.6426  136.7664  157.2422 C.ar    1  UNL1        0.0588
     18 S         143.1249  135.3884  156.8976 S.2     1  UNL1       -0.0701
     19 C         138.9276  141.5532  162.4852 C.ar    1  UNL1        0.0536
     20 C         138.0335  140.7027  163.3379 C.ar    1  UNL1        0.0045
     21 C         138.3725  140.4698  164.7805 C.ar    1  UNL1        0.0006
     22 C         139.6056  141.0875  165.3702 C.ar    1  UNL1        0.0060
     23 C         140.4998  141.9380  164.5175 C.ar    1  UNL1        0.0006
     24 C         140.1608  142.1709  163.0750 C.ar    1  UNL1        0.0045
     25 C         139.9447  140.8546  166.8128 C.ar    1  UNL1        0.0295
     26 C         139.2306  139.9235  167.7471 C.ar    1  UNL1        0.0070
     27 C         139.9019  140.0054  169.0860 C.ar    1  UNL1        0.0075
     28 C         141.0310  140.9872  168.9792 C.ar    1  UNL1        0.0354
     29 S         141.0574  141.5121  167.5741 S.2     1  UNL1       -0.0864
@<TRIPOS>BOND
     1    13    14    1
     2    14    15   ar
     3    15    16   ar
     4    16     1    1
     5     1     2   ar
     6     2     3   ar
     7     3     4   ar
     8     4     5   ar
     9     5     6    1
    10     6     7    1
    11     7     8    1
    12     8     9   am
    13     9    10    2
    14     9    19    1
    15    19    20   ar
    16    20    21   ar
    17    21    22   ar
    18    22    25    1
    19    25    26   ar
    20    26    27   ar
    21    27    28   ar
    22    28    29   ar
    23    22    23   ar
    24    23    24   ar
    25     8    11    1
    26    11    12    1
    27    16    17   ar
    28    17    18   ar
    29    18    14   ar
    30     5     1   ar
    31    24    19   ar
    32    11     4    1
    33    29    25   ar
@<TRIPOS>MOLECULE
*****
 29 33 0 0 0
SMALL
GASTEIGER

@<TRIPOS>ATOM
      1 C         143.0600  137.2055  156.1943 C.ar    1  UNL1        0.1845
      2 N         143.2802  138.0426  154.9693 N.ar    1  UNL1       -0.1274
      3 N         143.4712  139.4643  155.4076 N.ar    1  UNL1       -0.1316
      4 C         143.3691  139.5059  156.9036 C.ar    1  UNL1        0.1615
      5 N         143.1150  138.1099  157.3898 N.ar    1  UNL1       -0.2944
      6 C         142.9664  137.8425  158.8582 C.3     1  UNL1        0.1302
      7 C         143.0720  138.9713  159.8406 C.3     1  UNL1        0.1186
      8 N         143.3262  140.3673  159.3543 N.am    1  UNL1       -0.2688
      9 C         143.4318  141.4960  160.3366 C.2     1  UNL1        0.2493
     10 O         143.6859  142.8921  159.8503 O.2     1  UNL1       -0.2699
     11 C         143.4747  140.6346  157.8858 C.3     1  UNL1        0.1343
     12 C         143.7289  142.0307  157.3996 C.3     1  UNL1        0.0298
     13 C         141.1183  132.4095  155.1412 C.3     1  UNL1        0.0594
     14 C         141.9334  133.5196  155.7355 C.ar    1  UNL1        0.0887
     15 N         141.8270  134.9750  155.3883 N.ar    1  UNL1       -0.2396
     16 C         142.8260  135.7241  156.2195 C.ar    1  UNL1        0.1237
     17 C         143.5498  134.7317  157.0805 C.ar    1  UNL1        0.0588
     18 S         142.9982  133.3692  156.7813 S.2     1  UNL1       -0.0701
     19 C         143.2832  141.2287  161.8050 C.ar    1  UNL1        0.0536
     20 C         141.9451  141.3860  162.4644 C.ar    1  UNL1        0.0045
     21 C         141.7966  141.1187  163.9329 C.ar    1  UNL1        0.0006
     22 C         142.9861  140.6940  164.7420 C.ar    1  UNL1        0.0060
     23 C         144.3242  140.5366  164.0826 C.ar    1  UNL1        0.0006
     24 C         144.4727  140.8039  162.6142 C.ar    1  UNL1        0.0045
     25 C         142.8376  140.4266  166.2105 C.ar    1  UNL1        0.0295
     26 C         142.9028  139.0824  166.8730 C.ar    1  UNL1        0.0070
     27 C         142.7033  139.2815  168.3463 C.ar    1  UNL1        0.0075
     28 C         142.5148  140.7489  168.5944 C.ar    1  UNL1        0.0354
     29 S         142.5978  141.4566  167.2743 S.2     1  UNL1       -0.0864
@<TRIPOS>BOND
     1    13    14    1
     2    14    15   ar
     3    15    16   ar
     4    16     1    1
     5     1     2   ar
     6     2     3   ar
     7     3     4   ar
     8     4     5   ar
     9     5     6    1
    10     6     7    1
    11     7     8    1
    12     8     9   am
    13     9    10    2
    14     9    19    1
    15    19    20   ar
    16    20    21   ar
    17    21    22   ar
    18    22    25    1
    19    25    26   ar
    20    26    27   ar
    21    27    28   ar
    22    28    29   ar
    23    22    23   ar
    24    23    24   ar
    25     8    11    1
    26    11    12    1
    27    16    17   ar
    28    17    18   ar
    29    18    14   ar
    30     5     1   ar
    31    24    19   ar
    32    11     4    1
    33    29    25   ar
