@<TRIPOS>MOLECULE
*****
 30 35 0 0 0
SMALL
GASTEIGER

@<TRIPOS>ATOM
      1 C         139.5914  140.4213  166.3658 C.ar    1  UNL1        0.0014
      2 C         139.7898  139.0288  165.8444 C.ar    1  UNL1        0.0031
      3 C         139.5618  138.7323  164.3918 C.ar    1  UNL1        0.0366
      4 C         139.1354  139.8282  163.4605 C.ar    1  UNL1        0.1360
      5 C         138.9370  141.2206  163.9819 C.ar    1  UNL1        0.0357
      6 C         139.1650  141.5172  165.4345 C.ar    1  UNL1        0.0007
      7 C         138.5106  142.3165  163.0506 C.3     1  UNL1        0.1580
      8 C         138.0883  143.5083  162.2436 C.3     1  UNL1        0.2351
      9 O         138.0163  144.6900  163.1648 O.2     1  UNL1       -0.4478
     10 C         138.3941  144.2285  164.5411 C.2     1  UNL1        0.2770
     11 N         138.4557  145.0837  165.7718 N.pl3   1  UNL1       -0.3133
     12 N         138.6996  142.7616  164.4706 N.2     1  UNL1       -0.2202
     13 C         138.2826  142.0200  161.5980 C.3     1  UNL1        0.1141
     14 C         138.4016  141.7142  161.8579 C.3     1  UNL1        0.1501
     15 O         138.2765  142.0356  161.5848 O.3     1  UNL1       -0.3532
     16 C         138.4016  141.7142  161.8579 C.3     1  UNL1        0.1501
     17 C         138.4811  140.6276  161.0767 C.3     1  UNL1        0.1395
     18 C         138.0648  141.4337  159.8822 C.3     1  UNL1        0.0404
     19 C         138.1586  140.2082  159.0223 C.3     1  UNL1        0.0072
     20 C         138.5749  139.4021  160.2169 C.3     1  UNL1        0.0404
     21 O         138.9075  139.5317  162.0080 O.3     1  UNL1       -0.4826
     22 H         138.2359  146.0418  165.7170 H       1  UNL1        0.1466
     23 H         138.7159  144.6869  166.6344 H       1  UNL1        0.1466
     24 C         141.9007  143.2316  170.0764 C.3     1  UNL1        0.0327
     25 C         140.9740  142.1230  169.6737 C.ar    1  UNL1       -0.0027
     26 C         140.2753  141.3108  170.7236 C.ar    1  UNL1        0.0946
     27 N         139.3487  140.2022  170.3210 N.ar    1  UNL1       -0.2426
     28 C         139.1207  139.9057  168.8683 C.ar    1  UNL1        0.0988
     29 C         139.8193  140.7178  167.8184 C.ar    1  UNL1        0.0189
     30 C         140.7460  141.8265  168.2211 C.ar    1  UNL1       -0.0012
@<TRIPOS>BOND
     1    24    25    1
     2    25    26   ar
     3    26    27   ar
     4    27    28   ar
     5    28    29   ar
     6    29     1    1
     7     1     2   ar
     8     2     3   ar
     9     3     4   ar
    10     4     5   ar
    11     5     6   ar
    12     5     7    1
    13     7     8    1
    14     8     9    1
    15     9    10    1
    16    10    11    1
    17    10    12    2
    18     7    13    1
    19    13    14    1
    20    14    15    1
    21    15    16    1
    22    13    17    1
    23    17    18    1
    24    18    19    1
    25    19    20    1
    26    17    21    1
    27    29    30   ar
    28    30    25   ar
    29     6     1   ar
    30    12     7    1
    31    16    13    1
    32    20    17    1
    33    21     4    1
    34    11    22    1
    35    11    23    1
@<TRIPOS>MOLECULE
*****
 30 35 0 0 0
SMALL
GASTEIGER

@<TRIPOS>ATOM
      1 C         140.7248  143.4611  163.8761 C.ar    1  UNL1        0.0014
      2 C         139.9191  143.9278  165.0521 C.ar    1  UNL1        0.0031
      3 C         140.0392  143.2230  166.3707 C.ar    1  UNL1        0.0366
      4 C         140.9651  142.0515  166.5134 C.ar    1  UNL1        0.1360
      5 C         141.7708  141.5848  165.3374 C.ar    1  UNL1        0.0357
      6 C         141.6507  142.2896  164.0187 C.ar    1  UNL1        0.0007
      7 C         142.6967  140.4133  165.4801 C.3     1  UNL1        0.1580
      8 C         143.6589  139.2625  165.4714 C.3     1  UNL1        0.2351
      9 O         144.2386  139.1534  164.0922 O.2     1  UNL1       -0.4478
     10 C         143.6347  140.2366  163.2485 C.2     1  UNL1        0.2770
     11 N         143.9316  140.4958  161.8013 N.pl3   1  UNL1       -0.3133
     12 N         142.6817  141.0153  164.1062 N.2     1  UNL1       -0.2202
     13 C         142.8168  139.7085  166.7987 C.3     1  UNL1        0.1141
     14 C         142.5585  140.0353  166.7589 C.3     1  UNL1        0.1501
     15 O         142.8300  139.6918  166.8008 O.3     1  UNL1       -0.3532
     16 C         142.5585  140.0353  166.7589 C.3     1  UNL1        0.1501
     17 C         142.0111  140.1752  167.9747 C.3     1  UNL1        0.1395
     18 C         142.8029  139.0081  168.4853 C.3     1  UNL1        0.0404
     19 C         142.1810  139.1785  169.8396 C.3     1  UNL1        0.0072
     20 C         141.3891  140.3457  169.3290 C.3     1  UNL1        0.0404
     21 O         141.0852  141.3467  167.8320 O.3     1  UNL1       -0.4826
     22 H         144.5759  139.9268  161.3214 H       1  UNL1        0.1466
     23 H         143.4821  141.2349  161.3313 H       1  UNL1        0.1466
     24 C         142.1488  143.9823  158.9061 C.3     1  UNL1        0.0327
     25 C         141.3167  144.4265  160.0724 C.ar    1  UNL1       -0.0027
     26 C         140.3644  145.5754  159.9201 C.ar    1  UNL1        0.0946
     27 N         139.5323  146.0195  161.0864 N.ar    1  UNL1       -0.2426
     28 C         139.6524  145.3148  162.4051 C.ar    1  UNL1        0.0988
     29 C         140.6047  144.1658  162.5574 C.ar    1  UNL1        0.0189
     30 C         141.4368  143.7217  161.3911 C.ar    1  UNL1       -0.0012
@<TRIPOS>BOND
     1    24    25    1
     2    25    26   ar
     3    26    27   ar
     4    27    28   ar
     5    28    29   ar
     6    29     1    1
     7     1     2   ar
     8     2     3   ar
     9     3     4   ar
    10     4     5   ar
    11     5     6   ar
    12     5     7    1
    13     7     8    1
    14     8     9    1
    15     9    10    1
    16    10    11    1
    17    10    12    2
    18     7    13    1
    19    13    14    1
    20    14    15    1
    21    15    16    1
    22    13    17    1
    23    17    18    1
    24    18    19    1
    25    19    20    1
    26    17    21    1
    27    29    30   ar
    28    30    25   ar
    29     6     1   ar
    30    12     7    1
    31    16    13    1
    32    20    17    1
    33    21     4    1
    34    11    22    1
    35    11    23    1
@<TRIPOS>MOLECULE
*****
 30 35 0 0 0
SMALL
GASTEIGER

@<TRIPOS>ATOM
      1 C         141.5371  143.4921  163.6925 C.ar    1  UNL1        0.0014
      2 C         142.8375  143.8620  164.3422 C.ar    1  UNL1        0.0031
      3 C         143.2294  143.2342  165.6469 C.ar    1  UNL1        0.0366
      4 C         142.3209  142.2364  166.3019 C.ar    1  UNL1        0.1360
      5 C         141.0205  141.8665  165.6523 C.ar    1  UNL1        0.0357
      6 C         140.6286  142.4943  164.3475 C.ar    1  UNL1        0.0007
      7 C         140.1120  140.8687  166.3073 C.3     1  UNL1        0.1580
      8 C         139.1063  139.8919  166.8408 C.3     1  UNL1        0.2351
      9 O         137.9617  139.8301  165.8732 O.2     1  UNL1       -0.4478
     10 C         138.2599  140.7686  164.7418 C.2     1  UNL1        0.2770
     11 N         137.3832  141.0210  163.5512 N.pl3   1  UNL1       -0.3133
     12 N         139.5889  141.4105  165.0100 N.2     1  UNL1       -0.2202
     13 C         140.5039  140.2409  167.6120 C.3     1  UNL1        0.1141
     14 C         140.7574  140.5193  167.4292 C.3     1  UNL1        0.1501
     15 O         140.4909  140.2266  167.6213 O.3     1  UNL1       -0.3532
     16 C         140.7574  140.5193  167.4292 C.3     1  UNL1        0.1501
     17 C         141.8043  140.6108  168.2616 C.3     1  UNL1        0.1395
     18 C         141.1796  139.6085  169.1864 C.3     1  UNL1        0.0404
     19 C         142.3585  139.7229  170.1068 C.3     1  UNL1        0.0072
     20 C         142.9832  140.7252  169.1820 C.3     1  UNL1        0.0404
     21 O         142.7128  141.6086  167.6066 O.3     1  UNL1       -0.4826
     22 H         136.5239  140.5486  163.4637 H       1  UNL1        0.1466
     23 H         137.6671  141.6590  162.8572 H       1  UNL1        0.1466
     24 C         142.2477  144.0541  158.5760 C.3     1  UNL1        0.0327
     25 C         141.5005  144.4009  159.8295 C.ar    1  UNL1       -0.0027
     26 C         140.3615  145.3756  159.7784 C.ar    1  UNL1        0.0946
     27 N         139.6143  145.7224  161.0319 N.ar    1  UNL1       -0.2426
     28 C         140.0061  145.0946  162.3367 C.ar    1  UNL1        0.0988
     29 C         141.1452  144.1199  162.3878 C.ar    1  UNL1        0.0189
     30 C         141.8924  143.7731  161.1342 C.ar    1  UNL1       -0.0012
@<TRIPOS>BOND
     1    24    25    1
     2    25    26   ar
     3    26    27   ar
     4    27    28   ar
     5    28    29   ar
     6    29     1    1
     7     1     2   ar
     8     2     3   ar
     9     3     4   ar
    10     4     5   ar
    11     5     6   ar
    12     5     7    1
    13     7     8    1
    14     8     9    1
    15     9    10    1
    16    10    11    1
    17    10    12    2
    18     7    13    1
    19    13    14    1
    20    14    15    1
    21    15    16    1
    22    13    17    1
    23    17    18    1
    24    18    19    1
    25    19    20    1
    26    17    21    1
    27    29    30   ar
    28    30    25   ar
    29     6     1   ar
    30    12     7    1
    31    16    13    1
    32    20    17    1
    33    21     4    1
    34    11    22    1
    35    11    23    1
@<TRIPOS>MOLECULE
*****
 30 35 0 0 0
SMALL
GASTEIGER

@<TRIPOS>ATOM
      1 C         139.9762  140.4286  167.1481 C.ar    1  UNL1        0.0014
      2 C         138.7822  139.5263  167.0477 C.ar    1  UNL1        0.0031
      3 C         138.1729  139.2347  165.7084 C.ar    1  UNL1        0.0366
      4 C         138.7576  139.8454  164.4695 C.ar    1  UNL1        0.1360
      5 C         139.9516  140.7478  164.5698 C.ar    1  UNL1        0.0357
      6 C         140.5610  141.0394  165.9091 C.ar    1  UNL1        0.0007
      7 C         140.5364  141.3585  163.3308 C.3     1  UNL1        0.1580
      8 C         141.2267  142.0380  162.1854 C.3     1  UNL1        0.2351
      9 O         142.3668  142.8392  162.7409 O.2     1  UNL1       -0.4478
     10 C         142.3810  142.6550  164.2294 C.2     1  UNL1        0.2770
     11 N         143.3552  143.2767  165.1855 N.pl3   1  UNL1       -0.3133
     12 N         141.2497  141.7399  164.5941 N.2     1  UNL1       -0.2202
     13 C         139.9271  141.0669  161.9915 C.3     1  UNL1        0.1141
     14 C         139.7640  140.8965  162.3372 C.3     1  UNL1        0.1501
     15 O         139.9354  141.0756  161.9738 O.3     1  UNL1       -0.3532
     16 C         139.7640  140.8965  162.3372 C.3     1  UNL1        0.1501
     17 C         138.7331  140.1646  161.8912 C.3     1  UNL1        0.1395
     18 C         139.0284  140.5761  160.4793 C.3     1  UNL1        0.0404
     19 C         137.8714  139.7522  159.9971 C.3     1  UNL1        0.0072
     20 C         137.5761  139.3407  161.4090 C.3     1  UNL1        0.0404
     21 O         138.1484  139.5538  163.1302 O.3     1  UNL1       -0.4826
     22 H         144.0674  143.8669  164.8483 H       1  UNL1        0.1466
     23 H         143.2826  143.0945  166.1503 H       1  UNL1        0.1466
     24 C         143.8927  142.3129  169.9960 C.3     1  UNL1        0.0327
     25 C         142.5438  141.6624  169.9113 C.ar    1  UNL1       -0.0027
     26 C         141.8041  141.3034  171.1660 C.ar    1  UNL1        0.0946
     27 N         140.4552  140.6529  171.0813 N.ar    1  UNL1       -0.2426
     28 C         139.8458  140.3613  169.7420 C.ar    1  UNL1        0.0988
     29 C         140.5855  140.7202  168.4874 C.ar    1  UNL1        0.0189
     30 C         141.9345  141.3708  168.5721 C.ar    1  UNL1       -0.0012
@<TRIPOS>BOND
     1    24    25    1
     2    25    26   ar
     3    26    27   ar
     4    27    28   ar
     5    28    29   ar
     6    29     1    1
     7     1     2   ar
     8     2     3   ar
     9     3     4   ar
    10     4     5   ar
    11     5     6   ar
    12     5     7    1
    13     7     8    1
    14     8     9    1
    15     9    10    1
    16    10    11    1
    17    10    12    2
    18     7    13    1
    19    13    14    1
    20    14    15    1
    21    15    16    1
    22    13    17    1
    23    17    18    1
    24    18    19    1
    25    19    20    1
    26    17    21    1
    27    29    30   ar
    28    30    25   ar
    29     6     1   ar
    30    12     7    1
    31    16    13    1
    32    20    17    1
    33    21     4    1
    34    11    22    1
    35    11    23    1
@<TRIPOS>MOLECULE
*****
 30 35 0 0 0
SMALL
GASTEIGER

@<TRIPOS>ATOM
      1 C         141.9797  140.7862  166.8195 C.ar    1  UNL1        0.0014
      2 C         143.2855  141.3052  166.2944 C.ar    1  UNL1        0.0031
      3 C         143.7567  140.9047  164.9279 C.ar    1  UNL1        0.0366
      4 C         142.9223  139.9851  164.0864 C.ar    1  UNL1        0.1360
      5 C         141.6166  139.4661  164.6114 C.ar    1  UNL1        0.0357
      6 C         141.1452  139.8667  165.9780 C.ar    1  UNL1        0.0007
      7 C         140.7821  138.5466  163.7699 C.3     1  UNL1        0.1580
      8 C         139.8450  137.6249  163.0471 C.3     1  UNL1        0.2351
      9 O         138.6679  137.3668  163.9404 O.2     1  UNL1       -0.4478
     10 C         138.8775  138.1290  165.2152 C.2     1  UNL1        0.2770
     11 N         137.9444  138.1571  166.3892 N.pl3   1  UNL1       -0.3133
     12 N         140.1842  138.8581  165.1099 N.2     1  UNL1       -0.2202
     13 C         141.2534  138.1460  162.4034 C.3     1  UNL1        0.1141
     14 C         141.4862  138.4026  162.6381 C.3     1  UNL1        0.1501
     15 O         141.2415  138.1329  162.3914 O.3     1  UNL1       -0.3532
     16 C         141.4862  138.4026  162.6381 C.3     1  UNL1        0.1501
     17 C         142.5591  138.6650  161.8784 C.3     1  UNL1        0.1395
     18 C         142.0187  137.7945  160.7828 C.3     1  UNL1        0.0404
     19 C         143.2257  138.0985  159.9457 C.3     1  UNL1        0.0072
     20 C         143.7661  138.9691  161.0412 C.3     1  UNL1        0.0404
     21 O         143.3936  139.5846  162.7199 O.3     1  UNL1       -0.4826
     22 H         137.1055  137.6425  166.3637 H       1  UNL1        0.1466
     23 H         138.1709  138.6902  167.1853 H       1  UNL1        0.1466
     24 C         140.2149  144.4231  170.0842 C.3     1  UNL1        0.0327
     25 C         140.6260  143.0052  169.8184 C.ar    1  UNL1       -0.0027
     26 C         140.5658  141.9880  170.9191 C.ar    1  UNL1        0.0946
     27 N         140.9769  140.5701  170.6533 N.ar    1  UNL1       -0.2426
     28 C         141.4482  140.1695  169.2867 C.ar    1  UNL1        0.0988
     29 C         141.5084  141.1868  168.1860 C.ar    1  UNL1        0.0189
     30 C         141.0972  142.6047  168.4519 C.ar    1  UNL1       -0.0012
@<TRIPOS>BOND
     1    24    25    1
     2    25    26   ar
     3    26    27   ar
     4    27    28   ar
     5    28    29   ar
     6    29     1    1
     7     1     2   ar
     8     2     3   ar
     9     3     4   ar
    10     4     5   ar
    11     5     6   ar
    12     5     7    1
    13     7     8    1
    14     8     9    1
    15     9    10    1
    16    10    11    1
    17    10    12    2
    18     7    13    1
    19    13    14    1
    20    14    15    1
    21    15    16    1
    22    13    17    1
    23    17    18    1
    24    18    19    1
    25    19    20    1
    26    17    21    1
    27    29    30   ar
    28    30    25   ar
    29     6     1   ar
    30    12     7    1
    31    16    13    1
    32    20    17    1
    33    21     4    1
    34    11    22    1
    35    11    23    1
@<TRIPOS>MOLECULE
*****
 30 35 0 0 0
SMALL
GASTEIGER

@<TRIPOS>ATOM
      1 C         142.7421  139.2920  162.6404 C.ar    1  UNL1        0.0014
      2 C         144.0611  139.2517  163.3538 C.ar    1  UNL1        0.0031
      3 C         144.1102  139.3812  164.8473 C.ar    1  UNL1        0.0366
      4 C         142.8404  139.5510  165.6276 C.ar    1  UNL1        0.1360
      5 C         141.5215  139.5913  164.9143 C.ar    1  UNL1        0.0357
      6 C         141.4723  139.4618  163.4206 C.ar    1  UNL1        0.0007
      7 C         140.2517  139.7611  165.6946 C.3     1  UNL1        0.1580
      8 C         138.9063  139.9246  166.3374 C.3     1  UNL1        0.2351
      9 O         137.8696  139.9096  165.2532 O.2     1  UNL1       -0.4478
     10 C         138.5744  139.7368  163.9404 C.2     1  UNL1        0.2770
     11 N         137.9216  139.6678  162.5917 N.pl3   1  UNL1       -0.3133
     12 N         140.0466  139.6450  164.2131 N.2     1  UNL1       -0.2202
     13 C         140.3008  139.8906  167.1881 C.3     1  UNL1        0.1141
     14 C         140.6551  139.8433  166.9704 C.3     1  UNL1        0.1501
     15 O         140.2827  139.8930  167.1992 O.3     1  UNL1       -0.3532
     16 C         140.6551  139.8433  166.9704 C.3     1  UNL1        0.1501
     17 C         141.6197  139.8503  167.9014 C.3     1  UNL1        0.1395
     18 C         140.5976  140.0277  168.9849 C.3     1  UNL1        0.0404
     19 C         141.6892  140.0335  170.0138 C.3     1  UNL1        0.0072
     20 C         142.7113  139.8561  168.9302 C.3     1  UNL1        0.0404
     21 O         142.8895  139.6805  167.1211 O.3     1  UNL1       -0.4826
     22 H         136.9427  139.7381  162.5145 H       1  UNL1        0.1466
     23 H         138.4721  139.5523  161.7838 H       1  UNL1        0.1466
     24 C         140.0524  138.3841  158.2883 C.3     1  UNL1        0.0327
     25 C         141.3481  138.7086  158.9707 C.ar    1  UNL1       -0.0027
     26 C         142.5947  138.9035  158.1596 C.ar    1  UNL1        0.0946
     27 N         143.8905  139.2280  158.8421 N.ar    1  UNL1       -0.2426
     28 C         143.9396  139.3575  160.3357 C.ar    1  UNL1        0.0988
     29 C         142.6930  139.1625  161.1468 C.ar    1  UNL1        0.0189
     30 C         141.3972  138.8381  160.4643 C.ar    1  UNL1       -0.0012
@<TRIPOS>BOND
     1    24    25    1
     2    25    26   ar
     3    26    27   ar
     4    27    28   ar
     5    28    29   ar
     6    29     1    1
     7     1     2   ar
     8     2     3   ar
     9     3     4   ar
    10     4     5   ar
    11     5     6   ar
    12     5     7    1
    13     7     8    1
    14     8     9    1
    15     9    10    1
    16    10    11    1
    17    10    12    2
    18     7    13    1
    19    13    14    1
    20    14    15    1
    21    15    16    1
    22    13    17    1
    23    17    18    1
    24    18    19    1
    25    19    20    1
    26    17    21    1
    27    29    30   ar
    28    30    25   ar
    29     6     1   ar
    30    12     7    1
    31    16    13    1
    32    20    17    1
    33    21     4    1
    34    11    22    1
    35    11    23    1
@<TRIPOS>MOLECULE
*****
 30 35 0 0 0
SMALL
GASTEIGER

@<TRIPOS>ATOM
      1 C         142.0805  141.9753  166.4625 C.ar    1  UNL1        0.0014
      2 C         143.2629  141.1801  165.9936 C.ar    1  UNL1        0.0031
      3 C         143.7006  141.2607  164.5612 C.ar    1  UNL1        0.0366
      4 C         142.9560  142.1365  163.5976 C.ar    1  UNL1        0.1360
      5 C         141.7736  142.9317  164.0664 C.ar    1  UNL1        0.0357
      6 C         141.3359  142.8511  165.4989 C.ar    1  UNL1        0.0007
      7 C         141.0290  143.8074  163.1028 C.3     1  UNL1        0.1580
      8 C         140.1907  144.7215  162.2592 C.3     1  UNL1        0.2351
      9 O         139.1209  145.3072  163.1326 O.2     1  UNL1       -0.4478
     10 C         139.2981  144.7550  164.5159 C.2     1  UNL1        0.2770
     11 N         138.4458  145.0738  165.7083 N.pl3   1  UNL1       -0.3133
     12 N         140.4774  143.8281  164.4976 N.2     1  UNL1       -0.2202
     13 C         141.4667  143.8881  161.6703 C.3     1  UNL1        0.1141
     14 C         141.6745  143.6437  161.9392 C.3     1  UNL1        0.1501
     15 O         141.4561  143.9005  161.6566 O.3     1  UNL1       -0.3532
     16 C         141.6745  143.6437  161.9392 C.3     1  UNL1        0.1501
     17 C         142.6490  143.0929  161.2015 C.3     1  UNL1        0.1395
     18 C         142.1719  143.8321  159.9866 C.3     1  UNL1        0.0404
     19 C         143.2681  143.2069  159.1757 C.3     1  UNL1        0.0072
     20 C         143.7452  142.4678  160.3906 C.3     1  UNL1        0.0404
     21 O         143.3936  142.2171  162.1652 O.3     1  UNL1       -0.4826
     22 H         137.6896  145.6979  165.6201 H       1  UNL1        0.1466
     23 H         138.6426  144.6588  166.5791 H       1  UNL1        0.1466
     24 C         138.6674  140.3825  170.0421 C.3     1  UNL1        0.0327
     25 C         139.9363  141.0982  169.6847 C.ar    1  UNL1       -0.0027
     26 C         140.7674  141.7334  170.7598 C.ar    1  UNL1        0.0946
     27 N         142.0362  142.4491  170.4025 N.ar    1  UNL1       -0.2426
     28 C         142.4740  142.5298  168.9700 C.ar    1  UNL1        0.0988
     29 C         141.6428  141.8947  167.8949 C.ar    1  UNL1        0.0189
     30 C         140.3739  141.1789  168.2523 C.ar    1  UNL1       -0.0012
@<TRIPOS>BOND
     1    24    25    1
     2    25    26   ar
     3    26    27   ar
     4    27    28   ar
     5    28    29   ar
     6    29     1    1
     7     1     2   ar
     8     2     3   ar
     9     3     4   ar
    10     4     5   ar
    11     5     6   ar
    12     5     7    1
    13     7     8    1
    14     8     9    1
    15     9    10    1
    16    10    11    1
    17    10    12    2
    18     7    13    1
    19    13    14    1
    20    14    15    1
    21    15    16    1
    22    13    17    1
    23    17    18    1
    24    18    19    1
    25    19    20    1
    26    17    21    1
    27    29    30   ar
    28    30    25   ar
    29     6     1   ar
    30    12     7    1
    31    16    13    1
    32    20    17    1
    33    21     4    1
    34    11    22    1
    35    11    23    1
@<TRIPOS>MOLECULE
*****
 30 35 0 0 0
SMALL
GASTEIGER

@<TRIPOS>ATOM
      1 C         139.0730  140.0806  164.4073 C.ar    1  UNL1        0.0014
      2 C         138.2677  139.3279  165.4247 C.ar    1  UNL1        0.0031
      3 C         138.7060  139.3029  166.8589 C.ar    1  UNL1        0.0366
      4 C         139.9497  140.0305  167.2759 C.ar    1  UNL1        0.1360
      5 C         140.7550  140.7832  166.2586 C.ar    1  UNL1        0.0357
      6 C         140.3166  140.8082  164.8242 C.ar    1  UNL1        0.0007
      7 C         141.9986  141.5108  166.6756 C.3     1  UNL1        0.1580
      8 C         143.2576  142.2814  166.9423 C.3     1  UNL1        0.2351
      9 O         143.7235  142.8719  165.6444 O.2     1  UNL1       -0.4478
     10 C         142.7524  142.4663  164.5756 C.2     1  UNL1        0.2770
     11 N         142.8331  142.8367  163.1244 N.pl3   1  UNL1       -0.3133
     12 N         141.6864  141.6251  165.2128 N.2     1  UNL1       -0.2202
     13 C         142.4370  141.4858  168.1098 C.3     1  UNL1        0.1141
     14 C         142.0900  141.2828  167.9935 C.3     1  UNL1        0.1501
     15 O         142.4547  141.4962  168.1158 O.3     1  UNL1       -0.3532
     16 C         142.0900  141.2828  167.9935 C.3     1  UNL1        0.1501
     17 C         141.6317  140.7332  169.1271 C.3     1  UNL1        0.1395
     18 C         142.7781  141.3198  169.8963 C.3     1  UNL1        0.0404
     19 C         142.2516  140.6978  171.1556 C.3     1  UNL1        0.0072
     20 C         141.1052  140.1112  170.3865 C.3     1  UNL1        0.0404
     21 O         140.3880  140.0055  168.7102 O.3     1  UNL1       -0.4826
     22 H         143.5752  143.3963  162.7997 H       1  UNL1        0.1466
     23 H         142.1440  142.5203  162.4965 H       1  UNL1        0.1466
     24 C         138.6426  142.5878  159.8765 C.3     1  UNL1        0.0327
     25 C         138.4195  141.3592  160.7076 C.ar    1  UNL1       -0.0027
     26 C         137.7580  140.1556  160.1044 C.ar    1  UNL1        0.0946
     27 N         137.5348  138.9270  160.9355 N.ar    1  UNL1       -0.2426
     28 C         137.9731  138.9020  162.3698 C.ar    1  UNL1        0.0988
     29 C         138.6347  140.1056  162.9730 C.ar    1  UNL1        0.0189
     30 C         138.8578  141.3342  162.1418 C.ar    1  UNL1       -0.0012
@<TRIPOS>BOND
     1    24    25    1
     2    25    26   ar
     3    26    27   ar
     4    27    28   ar
     5    28    29   ar
     6    29     1    1
     7     1     2   ar
     8     2     3   ar
     9     3     4   ar
    10     4     5   ar
    11     5     6   ar
    12     5     7    1
    13     7     8    1
    14     8     9    1
    15     9    10    1
    16    10    11    1
    17    10    12    2
    18     7    13    1
    19    13    14    1
    20    14    15    1
    21    15    16    1
    22    13    17    1
    23    17    18    1
    24    18    19    1
    25    19    20    1
    26    17    21    1
    27    29    30   ar
    28    30    25   ar
    29     6     1   ar
    30    12     7    1
    31    16    13    1
    32    20    17    1
    33    21     4    1
    34    11    22    1
    35    11    23    1
@<TRIPOS>MOLECULE
*****
 30 35 0 0 0
SMALL
GASTEIGER

@<TRIPOS>ATOM
      1 C         142.1951  142.5051  164.9794 C.ar    1  UNL1        0.0014
      2 C         143.3881  143.2544  164.4641 C.ar    1  UNL1        0.0031
      3 C         143.3470  143.8862  163.1044 C.ar    1  UNL1        0.0366
      4 C         142.1129  143.7689  162.2598 C.ar    1  UNL1        0.1360
      5 C         140.9199  143.0197  162.7750 C.ar    1  UNL1        0.0357
      6 C         140.9610  142.3878  164.1348 C.ar    1  UNL1        0.0007
      7 C         139.6859  142.9024  161.9304 C.3     1  UNL1        0.1580
      8 C         138.3890  142.7024  161.2037 C.3     1  UNL1        0.2351
      9 O         137.4818  141.8980  162.0870 O.2     1  UNL1       -0.4478
     10 C         138.2180  141.6009  163.3596 C.2     1  UNL1        0.2770
     11 N         137.6857  140.8202  164.5245 N.pl3   1  UNL1       -0.3133
     12 N         139.5802  142.2217  163.2630 N.2     1  UNL1       -0.2202
     13 C         139.6448  143.5343  160.5707 C.3     1  UNL1        0.1141
     14 C         139.9891  143.5670  160.8063 C.3     1  UNL1        0.1501
     15 O         139.6271  143.5326  160.5586 O.3     1  UNL1       -0.3532
     16 C         139.9891  143.5670  160.8063 C.3     1  UNL1        0.1501
     17 C         140.8377  144.2835  160.0555 C.3     1  UNL1        0.1395
     18 C         139.8178  144.3766  158.9595 C.3     1  UNL1        0.0404
     19 C         140.7796  145.1772  158.1324 C.3     1  UNL1        0.0072
     20 C         141.7995  145.0841  159.2284 C.3     1  UNL1        0.0404
     21 O         142.0718  144.4008  160.9000 O.3     1  UNL1       -0.4826
     22 H         136.7738  140.4503  164.4937 H       1  UNL1        0.1466
     23 H         138.2481  140.6777  165.3199 H       1  UNL1        0.1466
     24 C         143.9876  142.4338  169.8560 C.3     1  UNL1        0.0327
     25 C         143.1325  141.8376  168.7775 C.ar    1  UNL1       -0.0027
     26 C         142.3184  140.6095  169.0588 C.ar    1  UNL1        0.0946
     27 N         141.4633  140.0133  167.9803 N.ar    1  UNL1       -0.2426
     28 C         141.4221  140.6451  166.6204 C.ar    1  UNL1        0.0988
     29 C         142.2362  141.8732  166.3392 C.ar    1  UNL1        0.0189
     30 C         143.0914  142.4695  167.4177 C.ar    1  UNL1       -0.0012
@<TRIPOS>BOND
     1    24    25    1
     2    25    26   ar
     3    26    27   ar
     4    27    28   ar
     5    28    29   ar
     6    29     1    1
     7     1     2   ar
     8     2     3   ar
     9     3     4   ar
    10     4     5   ar
    11     5     6   ar
    12     5     7    1
    13     7     8    1
    14     8     9    1
    15     9    10    1
    16    10    11    1
    17    10    12    2
    18     7    13    1
    19    13    14    1
    20    14    15    1
    21    15    16    1
    22    13    17    1
    23    17    18    1
    24    18    19    1
    25    19    20    1
    26    17    21    1
    27    29    30   ar
    28    30    25   ar
    29     6     1   ar
    30    12     7    1
    31    16    13    1
    32    20    17    1
    33    21     4    1
    34    11    22    1
    35    11    23    1
