@<TRIPOS>MOLECULE
*****
 19 22 0 0 0
SMALL
GASTEIGER

@<TRIPOS>ATOM
      1 C         140.9528  142.6906  166.5010 C.ar    1  UNL1        0.0188
      2 C         142.3498  142.5095  165.9856 C.ar    1  UNL1        0.0759
      3 N         142.4169  143.1036  164.6099 N.ar    1  UNL1       -0.3248
      4 C         141.0614  143.6519  164.2751 C.ar    1  UNL1        0.0794
      5 C         140.5342  144.3506  163.0570 C.ar    1  UNL1        0.1160
      6 N         139.1021  144.7941  163.0077 N.ar    1  UNL1       -0.2408
      7 C         138.1973  144.5388  164.1765 C.ar    1  UNL1        0.0990
      8 C         138.7245  143.8401  165.3946 C.ar    1  UNL1        0.0222
      9 C         140.1566  143.3967  165.4439 C.ar    1  UNL1        0.0203
     10 C         139.9283  142.7507  170.3346 C.ar    1  UNL1        0.0989
     11 C         140.4393  143.1972  168.9969 C.ar    1  UNL1        0.0207
     12 C         140.4418  142.2441  167.8387 C.ar    1  UNL1        0.0046
     13 C         139.9332  140.8443  168.0182 C.ar    1  UNL1        0.0207
     14 C         139.4222  140.3978  169.3560 C.ar    1  UNL1        0.0989
     15 N         139.4197  141.3510  170.5142 N.ar    1  UNL1       -0.2423
     16 C         143.6270  143.1425  163.7244 C.3     1  UNL1        0.1060
     17 C         144.6300  142.0282  163.7755 C.3     1  UNL1        0.0226
     18 C         146.0512  141.5551  163.6970 C.3     1  UNL1        0.0020
     19 C         144.9458  140.5714  163.9424 C.3     1  UNL1        0.0020
@<TRIPOS>BOND
     1    10    11   ar
     2    11    12   ar
     3    12     1    1
     4     1     2   ar
     5     2     3   ar
     6     3    16    1
     7    16    17    1
     8    17    18    1
     9    18    19    1
    10     3     4   ar
    11     4     5   ar
    12     5     6   ar
    13     6     7   ar
    14     7     8   ar
    15     8     9   ar
    16    12    13   ar
    17    13    14   ar
    18    14    15   ar
    19    15    10   ar
    20     9     1   ar
    21    19    17    1
    22     9     4   ar
@<TRIPOS>MOLECULE
*****
 19 22 0 0 0
SMALL
GASTEIGER

@<TRIPOS>ATOM
      1 C         142.2413  141.1848  166.8808 C.ar    1  UNL1        0.0188
      2 C         141.5611  139.8787  166.5952 C.ar    1  UNL1        0.0759
      3 N         142.0524  139.3807  165.2684 N.ar    1  UNL1       -0.3248
      4 C         143.0364  140.3788  164.7340 C.ar    1  UNL1        0.0794
      5 C         143.8411  140.4165  163.4687 C.ar    1  UNL1        0.1160
      6 N         144.7625  141.5692  163.2000 N.ar    1  UNL1       -0.2408
      7 C         144.8793  142.6842  164.1965 C.ar    1  UNL1        0.0990
      8 C         144.0746  142.6465  165.4618 C.ar    1  UNL1        0.0222
      9 C         143.1531  141.4938  165.7305 C.ar    1  UNL1        0.0203
     10 C         140.5438  143.5897  169.5425 C.ar    1  UNL1        0.0989
     11 C         140.7408  142.7416  168.3210 C.ar    1  UNL1        0.0207
     12 C         142.0444  142.0328  168.1023 C.ar    1  UNL1        0.0046
     13 C         143.1513  142.1721  169.1051 C.ar    1  UNL1        0.0207
     14 C         142.9544  143.0201  170.3266 C.ar    1  UNL1        0.0989
     15 N         141.6506  143.7290  170.5453 N.ar    1  UNL1       -0.2423
     16 C         141.6335  138.1079  164.5942 C.3     1  UNL1        0.1060
     17 C         140.1766  137.7884  164.4340 C.3     1  UNL1        0.0226
     18 C         138.9955  137.5186  163.5495 C.3     1  UNL1        0.0020
     19 C         138.8344  137.5050  165.0408 C.3     1  UNL1        0.0020
@<TRIPOS>BOND
     1    10    11   ar
     2    11    12   ar
     3    12     1    1
     4     1     2   ar
     5     2     3   ar
     6     3    16    1
     7    16    17    1
     8    17    18    1
     9    18    19    1
    10     3     4   ar
    11     4     5   ar
    12     5     6   ar
    13     6     7   ar
    14     7     8   ar
    15     8     9   ar
    16    12    13   ar
    17    13    14   ar
    18    14    15   ar
    19    15    10   ar
    20     9     1   ar
    21    19    17    1
    22     9     4   ar
@<TRIPOS>MOLECULE
*****
 19 22 0 0 0
SMALL
GASTEIGER

@<TRIPOS>ATOM
      1 C         141.2670  140.6593  167.5247 C.ar    1  UNL1        0.0188
      2 C         142.5397  140.8261  166.7486 C.ar    1  UNL1        0.0759
      3 N         142.3752  140.1256  165.4325 N.ar    1  UNL1       -0.3248
      4 C         141.0009  139.5258  165.3952 C.ar    1  UNL1        0.0794
      5 C         140.2846  138.7219  164.3508 C.ar    1  UNL1        0.1160
      6 N         138.8834  138.2479  164.5995 N.ar    1  UNL1       -0.2408
      7 C         138.1985  138.5777  165.8926 C.ar    1  UNL1        0.0990
      8 C         138.9147  139.3816  166.9370 C.ar    1  UNL1        0.0222
      9 C         140.3159  139.8556  166.6882 C.ar    1  UNL1        0.0203
     10 C         140.1194  143.1077  170.4296 C.ar    1  UNL1        0.0989
     11 C         140.3931  142.5660  169.0578 C.ar    1  UNL1        0.0207
     12 C         140.9933  141.2009  168.8965 C.ar    1  UNL1        0.0046
     13 C         141.3200  140.3774  170.1070 C.ar    1  UNL1        0.0207
     14 C         141.0463  140.9191  171.4787 C.ar    1  UNL1        0.0989
     15 N         140.4461  142.2842  171.6400 N.ar    1  UNL1       -0.2423
     16 C         143.4044  140.0399  164.3446 C.3     1  UNL1        0.1060
     17 C         144.4388  141.1172  164.2042 C.3     1  UNL1        0.0226
     18 C         144.8671  142.5408  164.4038 C.3     1  UNL1        0.0020
     19 C         145.8020  141.5594  163.7613 C.3     1  UNL1        0.0020
@<TRIPOS>BOND
     1    10    11   ar
     2    11    12   ar
     3    12     1    1
     4     1     2   ar
     5     2     3   ar
     6     3    16    1
     7    16    17    1
     8    17    18    1
     9    18    19    1
    10     3     4   ar
    11     4     5   ar
    12     5     6   ar
    13     6     7   ar
    14     7     8   ar
    15     8     9   ar
    16    12    13   ar
    17    13    14   ar
    18    14    15   ar
    19    15    10   ar
    20     9     1   ar
    21    19    17    1
    22     9     4   ar
@<TRIPOS>MOLECULE
*****
 19 22 0 0 0
SMALL
GASTEIGER

@<TRIPOS>ATOM
      1 C         140.2407  141.6092  167.0870 C.ar    1  UNL1        0.0188
      2 C         139.8918  140.1564  166.9552 C.ar    1  UNL1        0.0759
      3 N         139.0787  139.9865  165.7062 N.ar    1  UNL1       -0.3248
      4 C         138.9250  141.3344  165.0662 C.ar    1  UNL1        0.0794
      5 C         138.2240  141.7780  163.8165 C.ar    1  UNL1        0.1160
      6 N         138.2411  143.2246  163.4203 N.ar    1  UNL1       -0.2408
      7 C         138.9593  144.2276  164.2738 C.ar    1  UNL1        0.0990
      8 C         139.6604  143.7839  165.5234 C.ar    1  UNL1        0.0222
      9 C         139.6432  142.3373  165.9196 C.ar    1  UNL1        0.0203
     10 C         143.2906  142.4627  169.4787 C.ar    1  UNL1        0.0989
     11 C         142.4855  141.8461  168.3734 C.ar    1  UNL1        0.0207
     12 C         141.0458  142.2258  168.1923 C.ar    1  UNL1        0.0046
     13 C         140.4110  143.2223  169.1166 C.ar    1  UNL1        0.0207
     14 C         141.2161  143.8389  170.2219 C.ar    1  UNL1        0.0989
     15 N         142.6559  143.4591  170.4030 N.ar    1  UNL1       -0.2423
     16 C         138.5176  138.6954  165.1882 C.3     1  UNL1        0.1060
     17 C         138.8987  138.2065  163.8221 C.3     1  UNL1        0.0226
     18 C         139.9053  137.5888  162.8975 C.3     1  UNL1        0.0020
     19 C         138.5519  137.9776  162.3808 C.3     1  UNL1        0.0020
@<TRIPOS>BOND
     1    10    11   ar
     2    11    12   ar
     3    12     1    1
     4     1     2   ar
     5     2     3   ar
     6     3    16    1
     7    16    17    1
     8    17    18    1
     9    18    19    1
    10     3     4   ar
    11     4     5   ar
    12     5     6   ar
    13     6     7   ar
    14     7     8   ar
    15     8     9   ar
    16    12    13   ar
    17    13    14   ar
    18    14    15   ar
    19    15    10   ar
    20     9     1   ar
    21    19    17    1
    22     9     4   ar
@<TRIPOS>MOLECULE
*****
 19 22 0 0 0
SMALL
GASTEIGER

@<TRIPOS>ATOM
      1 C         142.4452  142.2823  166.0241 C.ar    1  UNL1        0.0188
      2 C         141.2447  143.1111  165.6752 C.ar    1  UNL1        0.0759
      3 N         141.4471  143.6621  164.2949 N.ar    1  UNL1       -0.3248
      4 C         142.7728  143.1738  163.7906 C.ar    1  UNL1        0.0794
      5 C         143.4978  143.3956  162.4964 C.ar    1  UNL1        0.1160
      6 N         144.8398  142.7645  162.2709 N.ar    1  UNL1       -0.2408
      7 C         145.4567  141.9117  163.3397 C.ar    1  UNL1        0.0990
      8 C         144.7316  141.6900  164.6339 C.ar    1  UNL1        0.0222
      9 C         143.3896  142.3210  164.8594 C.ar    1  UNL1        0.0203
     10 C         142.6325  139.3286  168.6681 C.ar    1  UNL1        0.0989
     11 C         142.4146  140.0667  167.3806 C.ar    1  UNL1        0.0207
     12 C         142.6631  141.5442  167.3117 C.ar    1  UNL1        0.0046
     13 C         143.1297  142.2839  168.5305 C.ar    1  UNL1        0.0207
     14 C         143.3476  141.5458  169.8180 C.ar    1  UNL1        0.0989
     15 N         143.0990  140.0682  169.8869 N.ar    1  UNL1       -0.2423
     16 C         140.4917  144.5462  163.5496 C.3     1  UNL1        0.1060
     17 C         139.0132  144.3895  163.7494 C.3     1  UNL1        0.0226
     18 C         137.8209  144.3636  164.6592 C.3     1  UNL1        0.0020
     19 C         137.6450  144.1439  163.1859 C.3     1  UNL1        0.0020
@<TRIPOS>BOND
     1    10    11   ar
     2    11    12   ar
     3    12     1    1
     4     1     2   ar
     5     2     3   ar
     6     3    16    1
     7    16    17    1
     8    17    18    1
     9    18    19    1
    10     3     4   ar
    11     4     5   ar
    12     5     6   ar
    13     6     7   ar
    14     7     8   ar
    15     8     9   ar
    16    12    13   ar
    17    13    14   ar
    18    14    15   ar
    19    15    10   ar
    20     9     1   ar
    21    19    17    1
    22     9     4   ar
@<TRIPOS>MOLECULE
*****
 19 22 0 0 0
SMALL
GASTEIGER

@<TRIPOS>ATOM
      1 C         140.6648  141.5632  167.2947 C.ar    1  UNL1        0.0188
      2 C         141.5030  142.3881  166.3637 C.ar    1  UNL1        0.0759
      3 N         141.2702  141.8916  164.9675 N.ar    1  UNL1       -0.3248
      4 C         140.2881  140.7598  165.0357 C.ar    1  UNL1        0.0794
      5 C         139.6862  139.8879  163.9739 C.ar    1  UNL1        0.1160
      6 N         138.7102  138.8130  164.3505 N.ar    1  UNL1       -0.2408
      7 C         138.3360  138.6101  165.7888 C.ar    1  UNL1        0.0990
      8 C         138.9378  139.4820  166.8506 C.ar    1  UNL1        0.0222
      9 C         139.9139  140.5569  166.4740 C.ar    1  UNL1        0.0203
     10 C         140.8970  140.7281  171.1676 C.ar    1  UNL1        0.0989
     11 C         140.9714  140.5738  169.6774 C.ar    1  UNL1        0.0207
     12 C         140.5904  141.7175  168.7849 C.ar    1  UNL1        0.0046
     13 C         140.1350  143.0158  169.3827 C.ar    1  UNL1        0.0207
     14 C         140.0607  143.1701  170.8729 C.ar    1  UNL1        0.0989
     15 N         140.4417  142.0263  171.7653 N.ar    1  UNL1       -0.2423
     16 C         141.9076  142.4319  163.7218 C.3     1  UNL1        0.1060
     17 C         142.6794  143.7173  163.7711 C.3     1  UNL1        0.0226
     18 C         143.8937  144.4878  164.1973 C.3     1  UNL1        0.0020
     19 C         142.8018  145.1729  163.4303 C.3     1  UNL1        0.0020
@<TRIPOS>BOND
     1    10    11   ar
     2    11    12   ar
     3    12     1    1
     4     1     2   ar
     5     2     3   ar
     6     3    16    1
     7    16    17    1
     8    17    18    1
     9    18    19    1
    10     3     4   ar
    11     4     5   ar
    12     5     6   ar
    13     6     7   ar
    14     7     8   ar
    15     8     9   ar
    16    12    13   ar
    17    13    14   ar
    18    14    15   ar
    19    15    10   ar
    20     9     1   ar
    21    19    17    1
    22     9     4   ar
@<TRIPOS>MOLECULE
*****
 19 22 0 0 0
SMALL
GASTEIGER

@<TRIPOS>ATOM
      1 C         139.8543  139.9681  166.0737 C.ar    1  UNL1        0.0188
      2 C         138.8419  140.9531  165.5690 C.ar    1  UNL1        0.0759
      3 N         138.4973  140.5815  164.1572 N.ar    1  UNL1       -0.3248
      4 C         139.2967  139.3667  163.7894 C.ar    1  UNL1        0.0794
      5 C         139.3694  138.5568  162.5289 C.ar    1  UNL1        0.1160
      6 N         140.2807  137.3678  162.4530 N.ar    1  UNL1       -0.2408
      7 C         141.1193  136.9887  163.6374 C.ar    1  UNL1        0.0990
      8 C         141.0467  137.7986  164.8979 C.ar    1  UNL1        0.0222
      9 C         140.1354  138.9876  164.9738 C.ar    1  UNL1        0.0203
     10 C         142.5849  139.8236  168.9499 C.ar    1  UNL1        0.0989
     11 C         141.9629  139.8276  167.5850 C.ar    1  UNL1        0.0207
     12 C         140.4764  139.9641  167.4386 C.ar    1  UNL1        0.0046
     13 C         139.6118  140.0968  168.6573 C.ar    1  UNL1        0.0207
     14 C         140.2339  140.0929  170.0222 C.ar    1  UNL1        0.0989
     15 N         141.7204  139.9563  170.1685 N.ar    1  UNL1       -0.2423
     16 C         137.5242  141.2986  163.2691 C.3     1  UNL1        0.1060
     17 C         137.7572  142.7357  162.9074 C.3     1  UNL1        0.0226
     18 C         138.2570  143.7670  161.9397 C.3     1  UNL1        0.0020
     19 C         137.6610  144.1932  163.2486 C.3     1  UNL1        0.0020
@<TRIPOS>BOND
     1    10    11   ar
     2    11    12   ar
     3    12     1    1
     4     1     2   ar
     5     2     3   ar
     6     3    16    1
     7    16    17    1
     8    17    18    1
     9    18    19    1
    10     3     4   ar
    11     4     5   ar
    12     5     6   ar
    13     6     7   ar
    14     7     8   ar
    15     8     9   ar
    16    12    13   ar
    17    13    14   ar
    18    14    15   ar
    19    15    10   ar
    20     9     1   ar
    21    19    17    1
    22     9     4   ar
@<TRIPOS>MOLECULE
*****
 19 22 0 0 0
SMALL
GASTEIGER

@<TRIPOS>ATOM
      1 C         141.5737  140.3851  166.0956 C.ar    1  UNL1        0.0188
      2 C         142.1009  141.6688  165.5264 C.ar    1  UNL1        0.0759
      3 N         142.3713  141.4522  164.0670 N.ar    1  UNL1       -0.3248
      4 C         142.0112  140.0346  163.7342 C.ar    1  UNL1        0.0794
      5 C         142.0685  139.2591  162.4515 C.ar    1  UNL1        0.1160
      6 N         141.6328  137.8241  162.4226 N.ar    1  UNL1       -0.2408
      7 C         141.1398  137.1646  163.6764 C.ar    1  UNL1        0.0990
      8 C         141.0825  137.9401  164.9591 C.ar    1  UNL1        0.0222
      9 C         141.5182  139.3751  164.9880 C.ar    1  UNL1        0.0203
     10 C         139.3575  140.1736  169.3810 C.ar    1  UNL1        0.0989
     11 C         139.7588  140.4065  167.9546 C.ar    1  UNL1        0.0207
     12 C         141.1724  140.1522  167.5220 C.ar    1  UNL1        0.0046
     13 C         142.1847  139.6650  168.5160 C.ar    1  UNL1        0.0207
     14 C         141.7834  139.4321  169.9425 C.ar    1  UNL1        0.0989
     15 N         140.3698  139.6864  170.3749 N.ar    1  UNL1       -0.2423
     16 C         142.9077  142.4738  163.1085 C.3     1  UNL1        0.1060
     17 C         142.9117  143.9260  163.4848 C.3     1  UNL1        0.0226
     18 C         142.1832  145.2263  163.6530 C.3     1  UNL1        0.0020
     19 C         143.6472  145.1406  163.9681 C.3     1  UNL1        0.0020
@<TRIPOS>BOND
     1    10    11   ar
     2    11    12   ar
     3    12     1    1
     4     1     2   ar
     5     2     3   ar
     6     3    16    1
     7    16    17    1
     8    17    18    1
     9    18    19    1
    10     3     4   ar
    11     4     5   ar
    12     5     6   ar
    13     6     7   ar
    14     7     8   ar
    15     8     9   ar
    16    12    13   ar
    17    13    14   ar
    18    14    15   ar
    19    15    10   ar
    20     9     1   ar
    21    19    17    1
    22     9     4   ar
@<TRIPOS>MOLECULE
*****
 19 22 0 0 0
SMALL
GASTEIGER

@<TRIPOS>ATOM
      1 C         140.4998  142.5749  166.4240 C.ar    1  UNL1        0.0188
      2 C         139.4108  142.8911  165.4421 C.ar    1  UNL1        0.0759
      3 N         140.0532  143.2134  164.1255 N.ar    1  UNL1       -0.3248
      4 C         141.5392  143.0964  164.2937 C.ar    1  UNL1        0.0794
      5 C         142.6766  143.2982  163.3369 C.ar    1  UNL1        0.1160
      6 N         144.0899  143.1054  163.8007 N.ar    1  UNL1       -0.2408
      7 C         144.3659  142.7107  165.2212 C.ar    1  UNL1        0.0990
      8 C         143.2285  142.5089  166.1781 C.ar    1  UNL1        0.0222
      9 C         141.8152  142.7018  165.7143 C.ar    1  UNL1        0.0203
     10 C         140.2522  142.8605  170.3746 C.ar    1  UNL1        0.0989
     11 C         140.4448  143.2374  168.9356 C.ar    1  UNL1        0.0207
     12 C         140.3072  142.1979  167.8631 C.ar    1  UNL1        0.0046
     13 C         139.9770  140.7813  168.2296 C.ar    1  UNL1        0.0207
     14 C         139.7844  140.4044  169.6687 C.ar    1  UNL1        0.0989
     15 N         139.9220  141.4439  170.7412 N.ar    1  UNL1       -0.2423
     16 C         139.3357  143.5872  162.8624 C.3     1  UNL1        0.1060
     17 C         139.7791  144.7838  162.0739 C.3     1  UNL1        0.0226
     18 C         139.7298  146.2606  161.8160 C.3     1  UNL1        0.0020
     19 C         140.5963  145.3793  160.9660 C.3     1  UNL1        0.0020
@<TRIPOS>BOND
     1    10    11   ar
     2    11    12   ar
     3    12     1    1
     4     1     2   ar
     5     2     3   ar
     6     3    16    1
     7    16    17    1
     8    17    18    1
     9    18    19    1
    10     3     4   ar
    11     4     5   ar
    12     5     6   ar
    13     6     7   ar
    14     7     8   ar
    15     8     9   ar
    16    12    13   ar
    17    13    14   ar
    18    14    15   ar
    19    15    10   ar
    20     9     1   ar
    21    19    17    1
    22     9     4   ar
