@<TRIPOS>MOLECULE
*****
 27 29 0 0 0
SMALL
GASTEIGER

@<TRIPOS>ATOM
      1 N         143.5037  137.4840  170.1368 N.pl3   1  UNL1       -0.3375
      2 C         142.8092  138.7976  169.9315 C.ar    1  UNL1        0.1568
      3 N         141.8240  139.1137  168.8455 N.ar    1  UNL1       -0.2242
      4 C         141.3839  140.5372  169.0188 C.ar    1  UNL1        0.0967
      5 C         140.4258  141.3930  168.2444 C.ar    1  UNL1        0.0747
      6 C         140.1810  142.8124  168.6631 C.ar    1  UNL1        0.0458
      7 C         140.8943  143.3761  169.8562 C.ar    1  UNL1        0.1682
      8 O         140.6495  144.7955  170.2749 O.3     1  UNL1       -0.5029
      9 C         141.8524  142.5202  170.6306 C.ar    1  UNL1        0.1751
     10 O         142.5657  143.0839  171.8238 O.3     1  UNL1       -0.5025
     11 C         142.0972  141.1008  170.2120 C.ar    1  UNL1        0.0865
     12 S         142.9780  140.0257  170.7760 S.2     1  UNL1       -0.0488
     13 H         143.3261  136.7325  169.5261 H       1  UNL1        0.1442
     14 H         144.1370  137.3733  170.8824 H       1  UNL1        0.1442
     15 H         140.0511  145.3301  169.7911 H       1  UNL1        0.2923
     16 H         142.4128  143.9706  172.0853 H       1  UNL1        0.2923
     17 C         139.7126  140.8293  167.0513 C.2     1  UNL1        0.2477
     18 O         139.6878  141.5948  165.7616 O.2     1  UNL1       -0.2701
     19 N         139.0240  139.5001  167.1479 N.am    1  UNL1       -0.2969
     20 H         139.0402  138.9977  167.9944 H       1  UNL1        0.1501
     21 C         138.3107  138.9365  165.9548 C.3     1  UNL1        0.1166
     22 C         139.0937  138.4782  164.7603 C.ar    1  UNL1       -0.0026
     23 C         138.6095  138.8002  163.3776 C.ar    1  UNL1       -0.0026
     24 C         139.3925  138.3419  162.1831 C.ar    1  UNL1       -0.0003
     25 C         140.6597  137.5616  162.3713 C.ar    1  UNL1       -0.0000
     26 C         141.1439  137.2396  163.7540 C.ar    1  UNL1       -0.0003
     27 C         140.3608  137.6979  164.9485 C.ar    1  UNL1       -0.0026
@<TRIPOS>BOND
     1     1     2    1
     2     2     3   ar
     3     3     4   ar
     4     4     5   ar
     5     5    17    1
     6    17    18    2
     7    17    19   am
     8    19    21    1
     9    21    22    1
    10    22    23   ar
    11    23    24   ar
    12    24    25   ar
    13    25    26   ar
    14    26    27   ar
    15     5     6   ar
    16     6     7   ar
    17     7     8    1
    18     7     9   ar
    19     9    10    1
    20     9    11   ar
    21    11    12   ar
    22    12     2   ar
    23    11     4   ar
    24    27    22   ar
    25     1    13    1
    26     1    14    1
    27    19    20    1
    28     8    15    1
    29    10    16    1
@<TRIPOS>MOLECULE
*****
 27 29 0 0 0
SMALL
GASTEIGER

@<TRIPOS>ATOM
      1 N         138.0591  138.8897  167.6242 N.pl3   1  UNL1       -0.3375
      2 C         139.1812  139.7652  168.0980 C.ar    1  UNL1        0.1568
      3 N         140.3849  140.1662  167.2978 N.ar    1  UNL1       -0.2242
      4 C         141.2442  141.0423  168.1604 C.ar    1  UNL1        0.0967
      5 C         142.5522  141.7302  167.9040 C.ar    1  UNL1        0.0747
      6 C         143.1877  142.5587  168.9810 C.ar    1  UNL1        0.0458
      7 C         142.5150  142.6992  170.3143 C.ar    1  UNL1        0.1682
      8 O         143.1504  143.5277  171.3913 O.3     1  UNL1       -0.5029
      9 C         141.2069  142.0113  170.5707 C.ar    1  UNL1        0.1751
     10 O         140.5343  142.1518  171.9040 O.3     1  UNL1       -0.5025
     11 C         140.5716  141.1828  169.4937 C.ar    1  UNL1        0.0865
     12 S         139.2966  140.3935  169.4551 S.2     1  UNL1       -0.0488
     13 H         138.0733  138.5225  166.7108 H       1  UNL1        0.1442
     14 H         137.3086  138.6823  168.2266 H       1  UNL1        0.1442
     15 H         143.9675  143.9575  171.2312 H       1  UNL1        0.2923
     16 H         140.9312  142.6693  172.5768 H       1  UNL1        0.2923
     17 C         143.2249  141.5897  166.5707 C.2     1  UNL1        0.2477
     18 O         143.7647  142.8019  165.8715 O.2     1  UNL1       -0.2701
     19 N         143.3577  140.2367  165.9365 N.am    1  UNL1       -0.2969
     20 H         143.0034  139.4411  166.3954 H       1  UNL1        0.1501
     21 C         144.0303  140.0962  164.6032 C.3     1  UNL1        0.1166
     22 C         143.3793  139.2943  163.5155 C.ar    1  UNL1       -0.0026
     23 C         142.1298  138.5159  163.8030 C.ar    1  UNL1       -0.0026
     24 C         141.4787  137.7139  162.7154 C.ar    1  UNL1       -0.0003
     25 C         142.0773  137.6903  161.3401 C.ar    1  UNL1       -0.0000
     26 C         143.3269  138.4687  161.0526 C.ar    1  UNL1       -0.0003
     27 C         143.9779  139.2707  162.1404 C.ar    1  UNL1       -0.0026
@<TRIPOS>BOND
     1     1     2    1
     2     2     3   ar
     3     3     4   ar
     4     4     5   ar
     5     5    17    1
     6    17    18    2
     7    17    19   am
     8    19    21    1
     9    21    22    1
    10    22    23   ar
    11    23    24   ar
    12    24    25   ar
    13    25    26   ar
    14    26    27   ar
    15     5     6   ar
    16     6     7   ar
    17     7     8    1
    18     7     9   ar
    19     9    10    1
    20     9    11   ar
    21    11    12   ar
    22    12     2   ar
    23    11     4   ar
    24    27    22   ar
    25     1    13    1
    26     1    14    1
    27    19    20    1
    28     8    15    1
    29    10    16    1
@<TRIPOS>MOLECULE
*****
 27 29 0 0 0
SMALL
GASTEIGER

@<TRIPOS>ATOM
      1 N         143.7014  142.6772  165.3091 N.pl3   1  UNL1       -0.3375
      2 C         142.9232  142.1399  166.4734 C.ar    1  UNL1        0.1568
      3 N         141.7304  141.2339  166.3940 N.ar    1  UNL1       -0.2242
      4 C         141.2712  140.9482  167.7931 C.ar    1  UNL1        0.0967
      5 C         140.1428  140.1181  168.3293 C.ar    1  UNL1        0.0747
      6 C         139.9234  140.0174  169.8098 C.ar    1  UNL1        0.0458
      7 C         140.8324  140.7469  170.7540 C.ar    1  UNL1        0.1682
      8 O         140.6131  140.6463  172.2345 O.3     1  UNL1       -0.5029
      9 C         141.9609  141.5771  170.2177 C.ar    1  UNL1        0.1751
     10 O         142.8699  142.3065  171.1619 O.3     1  UNL1       -0.5025
     11 C         142.1803  141.6777  168.7373 C.ar    1  UNL1        0.0865
     12 S         143.2012  142.4141  167.9217 S.2     1  UNL1       -0.0488
     13 H         143.4401  142.4389  164.3903 H       1  UNL1        0.1442
     14 H         144.4735  143.2682  165.4637 H       1  UNL1        0.1442
     15 H         139.9082  140.1278  172.5694 H       1  UNL1        0.2923
     16 H         142.7329  142.2437  172.0867 H       1  UNL1        0.2923
     17 C         139.2338  139.3886  167.3851 C.2     1  UNL1        0.2477
     18 O         137.8893  138.9161  167.8531 O.2     1  UNL1       -0.2701
     19 N         139.6693  139.1317  165.9729 N.am    1  UNL1       -0.2969
     20 H         140.5517  139.4418  165.6657 H       1  UNL1        0.1501
     21 C         138.7603  138.4022  165.0287 C.3     1  UNL1        0.1166
     22 C         138.3889  139.0233  163.7148 C.ar    1  UNL1       -0.0026
     23 C         138.4175  138.2001  162.4613 C.ar    1  UNL1       -0.0026
     24 C         138.0461  138.8212  161.1474 C.ar    1  UNL1       -0.0003
     25 C         137.6461  140.2657  161.0871 C.ar    1  UNL1       -0.0000
     26 C         137.6176  141.0890  162.3407 C.ar    1  UNL1       -0.0003
     27 C         137.9890  140.4677  163.6546 C.ar    1  UNL1       -0.0026
@<TRIPOS>BOND
     1     1     2    1
     2     2     3   ar
     3     3     4   ar
     4     4     5   ar
     5     5    17    1
     6    17    18    2
     7    17    19   am
     8    19    21    1
     9    21    22    1
    10    22    23   ar
    11    23    24   ar
    12    24    25   ar
    13    25    26   ar
    14    26    27   ar
    15     5     6   ar
    16     6     7   ar
    17     7     8    1
    18     7     9   ar
    19     9    10    1
    20     9    11   ar
    21    11    12   ar
    22    12     2   ar
    23    11     4   ar
    24    27    22   ar
    25     1    13    1
    26     1    14    1
    27    19    20    1
    28     8    15    1
    29    10    16    1
@<TRIPOS>MOLECULE
*****
 27 29 0 0 0
SMALL
GASTEIGER

@<TRIPOS>ATOM
      1 N         144.4514  141.0934  161.7734 N.pl3   1  UNL1       -0.3375
      2 C         143.3742  142.1304  161.8929 C.ar    1  UNL1        0.1568
      3 N         142.4580  142.3188  163.0655 N.ar    1  UNL1       -0.2242
      4 C         141.5416  143.4659  162.7581 C.ar    1  UNL1        0.0967
      5 C         140.4338  144.1037  163.5429 C.ar    1  UNL1        0.0747
      6 C         139.6758  145.2621  162.9650 C.ar    1  UNL1        0.0458
      7 C         140.0257  145.7825  161.6024 C.ar    1  UNL1        0.1682
      8 O         139.2678  146.9408  161.0246 O.3     1  UNL1       -0.5029
      9 C         141.1336  145.1447  160.8177 C.ar    1  UNL1        0.1751
     10 O         141.4835  145.6651  159.4551 O.3     1  UNL1       -0.5025
     11 C         141.8915  143.9864  161.3955 C.ar    1  UNL1        0.0865
     12 S         143.0241  143.1610  160.8608 S.2     1  UNL1       -0.0488
     13 H         144.6060  140.4572  162.5087 H       1  UNL1        0.1442
     14 H         145.0038  141.0489  160.9597 H       1  UNL1        0.1442
     15 H         138.5758  147.3393  161.5148 H       1  UNL1        0.2923
     16 H         141.0100  146.3887  159.0941 H       1  UNL1        0.2923
     17 C         140.0839  143.5833  164.9055 C.2     1  UNL1        0.2477
     18 O         139.1898  144.3822  165.8066 O.2     1  UNL1       -0.2701
     19 N         140.6282  142.2638  165.3669 N.am    1  UNL1       -0.2969
     20 H         141.2150  141.7394  164.7754 H       1  UNL1        0.1501
     21 C         140.2783  141.7433  166.7295 C.3     1  UNL1        0.1166
     22 C         141.0737  142.1769  167.9249 C.ar    1  UNL1       -0.0026
     23 C         140.4648  143.1035  168.9352 C.ar    1  UNL1       -0.0026
     24 C         141.2602  143.5370  170.1306 C.ar    1  UNL1       -0.0003
     25 C         142.6647  143.0439  170.3160 C.ar    1  UNL1       -0.0000
     26 C         143.2737  142.1173  169.3058 C.ar    1  UNL1       -0.0003
     27 C         142.4782  141.6838  168.1102 C.ar    1  UNL1       -0.0026
@<TRIPOS>BOND
     1     1     2    1
     2     2     3   ar
     3     3     4   ar
     4     4     5   ar
     5     5    17    1
     6    17    18    2
     7    17    19   am
     8    19    21    1
     9    21    22    1
    10    22    23   ar
    11    23    24   ar
    12    24    25   ar
    13    25    26   ar
    14    26    27   ar
    15     5     6   ar
    16     6     7   ar
    17     7     8    1
    18     7     9   ar
    19     9    10    1
    20     9    11   ar
    21    11    12   ar
    22    12     2   ar
    23    11     4   ar
    24    27    22   ar
    25     1    13    1
    26     1    14    1
    27    19    20    1
    28     8    15    1
    29    10    16    1
@<TRIPOS>MOLECULE
*****
 27 29 0 0 0
SMALL
GASTEIGER

@<TRIPOS>ATOM
      1 N         144.7456  142.9120  170.3003 N.pl3   1  UNL1       -0.3375
      2 C         143.5979  142.2748  169.5746 C.ar    1  UNL1        0.1568
      3 N         143.3550  142.3217  168.0951 N.ar    1  UNL1       -0.2242
      4 C         142.0985  141.5547  167.8070 C.ar    1  UNL1        0.0967
      5 C         141.3715  141.2633  166.5278 C.ar    1  UNL1        0.0747
      6 C         140.1106  140.4510  166.5500 C.ar    1  UNL1        0.0458
      7 C         139.5769  139.9300  167.8514 C.ar    1  UNL1        0.1682
      8 O         138.3161  139.1177  167.8736 O.3     1  UNL1       -0.5029
      9 C         140.3040  140.2214  169.1307 C.ar    1  UNL1        0.1751
     10 O         139.7703  139.7005  170.4321 O.3     1  UNL1       -0.5025
     11 C         141.5648  141.0337  169.1084 C.ar    1  UNL1        0.0865
     12 S         142.4914  141.4788  170.2008 S.2     1  UNL1       -0.0488
     13 H         145.4256  143.4172  169.7987 H       1  UNL1        0.1442
     14 H         144.8188  142.8250  171.2782 H       1  UNL1        0.1442
     15 H         137.8619  138.9357  167.0745 H       1  UNL1        0.2923
     16 H         138.9827  139.1930  170.4460 H       1  UNL1        0.2923
     17 C         141.9052  141.7843  165.2264 C.2     1  UNL1        0.2477
     18 O         141.7522  140.9726  163.9743 O.2     1  UNL1       -0.2701
     19 N         142.5920  143.1170  165.1770 N.am    1  UNL1       -0.2969
     20 H         142.6924  143.6497  165.9988 H       1  UNL1        0.1501
     21 C         143.1257  143.6379  163.8756 C.3     1  UNL1        0.1166
     22 C         142.1951  144.2663  162.8810 C.ar    1  UNL1       -0.0026
     23 C         141.1157  145.1973  163.3480 C.ar    1  UNL1       -0.0026
     24 C         140.1851  145.8256  162.3535 C.ar    1  UNL1       -0.0003
     25 C         140.3339  145.5229  160.8919 C.ar    1  UNL1       -0.0000
     26 C         141.4133  144.5919  160.4249 C.ar    1  UNL1       -0.0003
     27 C         142.3439  143.9636  161.4195 C.ar    1  UNL1       -0.0026
@<TRIPOS>BOND
     1     1     2    1
     2     2     3   ar
     3     3     4   ar
     4     4     5   ar
     5     5    17    1
     6    17    18    2
     7    17    19   am
     8    19    21    1
     9    21    22    1
    10    22    23   ar
    11    23    24   ar
    12    24    25   ar
    13    25    26   ar
    14    26    27   ar
    15     5     6   ar
    16     6     7   ar
    17     7     8    1
    18     7     9   ar
    19     9    10    1
    20     9    11   ar
    21    11    12   ar
    22    12     2   ar
    23    11     4   ar
    24    27    22   ar
    25     1    13    1
    26     1    14    1
    27    19    20    1
    28     8    15    1
    29    10    16    1
@<TRIPOS>MOLECULE
*****
 27 29 0 0 0
SMALL
GASTEIGER

@<TRIPOS>ATOM
      1 N         137.7419  139.4934  170.0074 N.pl3   1  UNL1       -0.3375
      2 C         139.0756  140.1457  169.7938 C.ar    1  UNL1        0.1568
      3 N         139.8288  140.2090  168.4982 N.ar    1  UNL1       -0.2242
      4 C         141.1091  140.9516  168.7420 C.ar    1  UNL1        0.0967
      5 C         142.2450  141.3187  167.8339 C.ar    1  UNL1        0.0747
      6 C         143.4192  142.0815  168.3721 C.ar    1  UNL1        0.0458
      7 C         143.4573  142.4772  169.8184 C.ar    1  UNL1        0.1682
      8 O         144.6313  143.2399  170.3567 O.3     1  UNL1       -0.5029
      9 C         142.3212  142.1101  170.7266 C.ar    1  UNL1        0.1751
     10 O         142.3592  142.5058  172.1729 O.3     1  UNL1       -0.5025
     11 C         141.1471  141.3474  170.1883 C.ar    1  UNL1        0.0865
     12 S         139.8904  140.8493  170.8384 S.2     1  UNL1       -0.0488
     13 H         137.2825  139.0544  169.2553 H       1  UNL1        0.1442
     14 H         137.3258  139.5043  170.8996 H       1  UNL1        0.1442
     15 H         145.3410  143.4692  169.7894 H       1  UNL1        0.2923
     16 H         143.0926  142.9823  172.5092 H       1  UNL1        0.2923
     17 C         142.2070  140.9230  166.3875 C.2     1  UNL1        0.2477
     18 O         141.7043  141.8911  165.3580 O.2     1  UNL1       -0.2701
     19 N         142.6717  139.5590  165.9706 N.am    1  UNL1       -0.2969
     20 H         143.0017  138.9235  166.6463 H       1  UNL1        0.1501
     21 C         142.6336  139.1633  164.5243 C.3     1  UNL1        0.1166
     22 C         141.3579  138.6580  163.9183 C.ar    1  UNL1       -0.0026
     23 C         141.2408  138.5124  162.4300 C.ar    1  UNL1       -0.0026
     24 C         139.9651  138.0072  161.8239 C.ar    1  UNL1       -0.0003
     25 C         138.8065  137.6475  162.7062 C.ar    1  UNL1       -0.0000
     26 C         138.9237  137.7931  164.1945 C.ar    1  UNL1       -0.0003
     27 C         140.1994  138.2984  164.8006 C.ar    1  UNL1       -0.0026
@<TRIPOS>BOND
     1     1     2    1
     2     2     3   ar
     3     3     4   ar
     4     4     5   ar
     5     5    17    1
     6    17    18    2
     7    17    19   am
     8    19    21    1
     9    21    22    1
    10    22    23   ar
    11    23    24   ar
    12    24    25   ar
    13    25    26   ar
    14    26    27   ar
    15     5     6   ar
    16     6     7   ar
    17     7     8    1
    18     7     9   ar
    19     9    10    1
    20     9    11   ar
    21    11    12   ar
    22    12     2   ar
    23    11     4   ar
    24    27    22   ar
    25     1    13    1
    26     1    14    1
    27    19    20    1
    28     8    15    1
    29    10    16    1
@<TRIPOS>MOLECULE
*****
 27 29 0 0 0
SMALL
GASTEIGER

@<TRIPOS>ATOM
      1 N         143.3755  143.7592  171.1304 N.pl3   1  UNL1       -0.3375
      2 C         142.4925  142.8898  170.2851 C.ar    1  UNL1        0.1568
      3 N         142.6041  142.6976  168.8017 N.ar    1  UNL1       -0.2242
      4 C         141.5234  141.7490  168.3746 C.ar    1  UNL1        0.0967
      5 C         141.1485  141.1931  167.0329 C.ar    1  UNL1        0.0747
      6 C         139.9940  140.2432  166.9106 C.ar    1  UNL1        0.0458
      7 C         139.2146  139.8491  168.1301 C.ar    1  UNL1        0.1682
      8 O         138.0602  138.8992  168.0079 O.3     1  UNL1       -0.5029
      9 C         139.5896  140.4051  169.4719 C.ar    1  UNL1        0.1751
     10 O         138.8101  140.0110  170.6914 O.3     1  UNL1       -0.5025
     11 C         140.7440  141.3550  169.5942 C.ar    1  UNL1        0.0865
     12 S         141.3429  142.0601  170.7749 S.2     1  UNL1       -0.0488
     13 H         144.1083  144.2685  170.7146 H       1  UNL1        0.1442
     14 H         143.2223  143.8206  172.1010 H       1  UNL1        0.1442
     15 H         137.8259  138.5520  167.1697 H       1  UNL1        0.2923
     16 H         138.0890  139.4176  170.6151 H       1  UNL1        0.2923
     17 C         141.9279  141.5871  165.8134 C.2     1  UNL1        0.2477
     18 O         141.2136  142.1176  164.6057 O.2     1  UNL1       -0.2701
     19 N         143.4217  141.4507  165.8015 N.am    1  UNL1       -0.2969
     20 H         143.8905  141.1026  166.5942 H       1  UNL1        0.1501
     21 C         144.2011  141.8447  164.5820 C.3     1  UNL1        0.1166
     22 C         144.1340  141.0006  163.3439 C.ar    1  UNL1       -0.0026
     23 C         144.0963  139.5054  163.4568 C.ar    1  UNL1       -0.0026
     24 C         144.0292  138.6613  162.2187 C.ar    1  UNL1       -0.0003
     25 C         143.9999  139.3124  160.8676 C.ar    1  UNL1       -0.0000
     26 C         144.0376  140.8077  160.7548 C.ar    1  UNL1       -0.0003
     27 C         144.1047  141.6518  161.9930 C.ar    1  UNL1       -0.0026
@<TRIPOS>BOND
     1     1     2    1
     2     2     3   ar
     3     3     4   ar
     4     4     5   ar
     5     5    17    1
     6    17    18    2
     7    17    19   am
     8    19    21    1
     9    21    22    1
    10    22    23   ar
    11    23    24   ar
    12    24    25   ar
    13    25    26   ar
    14    26    27   ar
    15     5     6   ar
    16     6     7   ar
    17     7     8    1
    18     7     9   ar
    19     9    10    1
    20     9    11   ar
    21    11    12   ar
    22    12     2   ar
    23    11     4   ar
    24    27    22   ar
    25     1    13    1
    26     1    14    1
    27    19    20    1
    28     8    15    1
    29    10    16    1
@<TRIPOS>MOLECULE
*****
 27 29 0 0 0
SMALL
GASTEIGER

@<TRIPOS>ATOM
      1 N         145.8658  141.8790  163.5734 N.pl3   1  UNL1       -0.3375
      2 C         144.4949  142.4595  163.3895 C.ar    1  UNL1        0.1568
      3 N         143.3171  142.2423  164.2925 N.ar    1  UNL1       -0.2242
      4 C         142.1554  143.0076  163.7314 C.ar    1  UNL1        0.0967
      5 C         140.7383  143.1652  164.1970 C.ar    1  UNL1        0.0747
      6 C         139.7810  144.0131  163.4128 C.ar    1  UNL1        0.0458
      7 C         140.2410  144.7033  162.1630 C.ar    1  UNL1        0.1682
      8 O         139.2838  145.5510  161.3788 O.3     1  UNL1       -0.5029
      9 C         141.6582  144.5456  161.6974 C.ar    1  UNL1        0.1751
     10 O         142.1181  145.2358  160.4475 O.3     1  UNL1       -0.5025
     11 C         142.6154  143.6978  162.4815 C.ar    1  UNL1        0.0865
     12 S         144.0612  143.3590  162.2703 S.2     1  UNL1       -0.0488
     13 H         146.0542  141.2962  164.3442 H       1  UNL1        0.1442
     14 H         146.5771  142.0808  162.9233 H       1  UNL1        0.1442
     15 H         138.3985  145.6495  161.6697 H       1  UNL1        0.2923
     16 H         141.5202  145.7654  159.9577 H       1  UNL1        0.2923
     17 C         140.2784  142.4751  165.4469 C.2     1  UNL1        0.2477
     18 O         140.3002  143.2040  166.7576 O.2     1  UNL1       -0.2701
     19 N         139.7965  141.0558  165.3859 N.am    1  UNL1       -0.2969
     20 H         139.7822  140.5773  164.5256 H       1  UNL1        0.1501
     21 C         139.3366  140.3656  166.6358 C.3     1  UNL1        0.1166
     22 C         140.3218  140.0412  167.7193 C.ar    1  UNL1       -0.0026
     23 C         139.8996  140.0951  169.1576 C.ar    1  UNL1       -0.0026
     24 C         140.8848  139.7707  170.2412 C.ar    1  UNL1       -0.0003
     25 C         142.2923  139.3924  169.8864 C.ar    1  UNL1       -0.0000
     26 C         142.7145  139.3385  168.4480 C.ar    1  UNL1       -0.0003
     27 C         141.7292  139.6629  167.3645 C.ar    1  UNL1       -0.0026
@<TRIPOS>BOND
     1     1     2    1
     2     2     3   ar
     3     3     4   ar
     4     4     5   ar
     5     5    17    1
     6    17    18    2
     7    17    19   am
     8    19    21    1
     9    21    22    1
    10    22    23   ar
    11    23    24   ar
    12    24    25   ar
    13    25    26   ar
    14    26    27   ar
    15     5     6   ar
    16     6     7   ar
    17     7     8    1
    18     7     9   ar
    19     9    10    1
    20     9    11   ar
    21    11    12   ar
    22    12     2   ar
    23    11     4   ar
    24    27    22   ar
    25     1    13    1
    26     1    14    1
    27    19    20    1
    28     8    15    1
    29    10    16    1
@<TRIPOS>MOLECULE
*****
 27 29 0 0 0
SMALL
GASTEIGER

@<TRIPOS>ATOM
      1 N         137.1659  141.8385  163.4530 N.pl3   1  UNL1       -0.3375
      2 C         138.5555  142.4000  163.5136 C.ar    1  UNL1        0.1568
      3 N         139.6222  142.0095  164.4932 N.ar    1  UNL1       -0.2242
      4 C         140.8484  142.8187  164.1904 C.ar    1  UNL1        0.0967
      5 C         142.2063  142.8596  164.8263 C.ar    1  UNL1        0.0747
      6 C         143.2554  143.7911  164.2954 C.ar    1  UNL1        0.0458
      7 C         142.9465  144.6817  163.1286 C.ar    1  UNL1        0.1682
      8 O         143.9954  145.6132  162.5977 O.3     1  UNL1       -0.5029
      9 C         141.5885  144.6407  162.4927 C.ar    1  UNL1        0.1751
     10 O         141.2796  145.5313  161.3258 O.3     1  UNL1       -0.5025
     11 C         140.5395  143.7092  163.0235 C.ar    1  UNL1        0.0865
     12 S         139.1224  143.4505  162.6053 S.2     1  UNL1       -0.0488
     13 H         136.8854  141.1480  164.0963 H       1  UNL1        0.1442
     14 H         136.5342  142.1605  162.7699 H       1  UNL1        0.1442
     15 H         144.8437  145.6388  162.9949 H       1  UNL1        0.2923
     16 H         141.9349  146.1132  160.9942 H       1  UNL1        0.2923
     17 C         142.5152  141.9690  165.9931 C.2     1  UNL1        0.2477
     18 O         143.3692  142.4752  167.1175 O.2     1  UNL1       -0.2701
     19 N         141.9700  140.5722  166.0354 N.am    1  UNL1       -0.2969
     20 H         141.4095  140.2399  165.2974 H       1  UNL1        0.1501
     21 C         142.2789  139.6816  167.2022 C.3     1  UNL1        0.1166
     22 C         141.7304  140.0069  168.5599 C.ar    1  UNL1       -0.0026
     23 C         142.6651  140.2619  169.7051 C.ar    1  UNL1       -0.0026
     24 C         142.1165  140.5871  171.0627 C.ar    1  UNL1       -0.0003
     25 C         140.6333  140.6574  171.2753 C.ar    1  UNL1       -0.0000
     26 C         139.6986  140.4024  170.1301 C.ar    1  UNL1       -0.0003
     27 C         140.2472  140.0771  168.7724 C.ar    1  UNL1       -0.0026
@<TRIPOS>BOND
     1     1     2    1
     2     2     3   ar
     3     3     4   ar
     4     4     5   ar
     5     5    17    1
     6    17    18    2
     7    17    19   am
     8    19    21    1
     9    21    22    1
    10    22    23   ar
    11    23    24   ar
    12    24    25   ar
    13    25    26   ar
    14    26    27   ar
    15     5     6   ar
    16     6     7   ar
    17     7     8    1
    18     7     9   ar
    19     9    10    1
    20     9    11   ar
    21    11    12   ar
    22    12     2   ar
    23    11     4   ar
    24    27    22   ar
    25     1    13    1
    26     1    14    1
    27    19    20    1
    28     8    15    1
    29    10    16    1
