@<TRIPOS>MOLECULE
*****
 38 43 0 0 0
SMALL
GASTEIGER

@<TRIPOS>ATOM
      1 N         145.5397  142.2652  162.7484 N.pl3   1  UNL1       -0.3133
      2 C         144.2279  141.7214  163.2315 C.2     1  UNL1        0.2773
      3 N         143.2762  140.8781  162.4359 N.2     1  UNL1       -0.2161
      4 C         142.0976  140.5610  163.3078 C.3     1  UNL1        0.1721
      5 C         142.3208  141.2083  164.6424 C.3     1  UNL1        0.2392
      6 O         143.6374  141.9254  164.5952 O.2     1  UNL1       -0.4474
      7 C         142.0127  139.9740  161.9299 C.ar    1  UNL1        0.0411
      8 C         143.1203  140.2075  160.9457 C.ar    1  UNL1        0.0157
      9 C         143.0354  139.6206  159.5679 C.ar    1  UNL1        0.0505
     10 C         141.8429  138.8003  159.1744 C.ar    1  UNL1        0.0178
     11 C         140.7353  138.5668  160.1586 C.ar    1  UNL1        0.0385
     12 C         140.8202  139.1536  161.5363 C.ar    1  UNL1        0.1436
     13 O         139.7126  138.9201  162.5206 O.3     1  UNL1       -0.4524
     14 C         139.7975  139.5071  163.8984 C.ar    1  UNL1        0.1625
     15 C         138.6899  139.2736  164.8826 C.ar    1  UNL1        0.1359
     16 N         138.7748  139.8605  166.2604 N.ar    1  UNL1       -0.2409
     17 C         139.9673  140.6809  166.6540 C.ar    1  UNL1        0.0794
     18 C         141.0749  140.9144  165.6698 C.ar    1  UNL1        0.0199
     19 C         140.9900  140.3275  164.2920 C.ar    1  UNL1        0.0430
     20 H         145.8433  142.0757  161.8312 H       1  UNL1        0.1466
     21 H         146.0971  142.8116  163.3484 H       1  UNL1        0.1466
     22 C         140.0522  141.2678  168.0318 C.2     1  UNL1        0.0207
     23 C         140.5406  142.6736  168.2194 C.2     1  UNL1       -0.0239
     24 C         140.6255  143.2605  169.5973 C.3     1  UNL1        0.0579
     25 C         140.2219  142.4416  170.7874 C.3     1  UNL1        0.1473
     26 O         139.7335  141.0358  170.5998 O.3     1  UNL1       -0.3486
     27 C         139.6486  140.4489  169.2220 C.3     1  UNL1        0.1698
     28 N         144.1430  139.8541  158.5837 N.am    1  UNL1       -0.2791
     29 C         144.2107  141.1453  157.8231 C.2     1  UNL1        0.2672
     30 O         143.1707  142.2029  158.0468 O.2     1  UNL1       -0.2682
     31 H         144.8255  139.1600  158.4369 H       1  UNL1        0.1552
     32 C         145.3183  141.3788  156.8389 C.ar    1  UNL1        0.1348
     33 C         145.3036  140.6775  155.5130 C.ar    1  UNL1        0.0246
     34 C         146.4112  140.9110  154.5288 C.ar    1  UNL1        0.0147
     35 C         147.5334  141.8458  154.8705 C.ar    1  UNL1        0.0768
     36 CL        148.6410  142.0792  153.8862 Cl      1  UNL1       -0.0806
     37 C         147.5481  142.5471  156.1963 C.ar    1  UNL1        0.1103
     38 N         146.4405  142.3136  157.1805 N.ar    1  UNL1       -0.2384
@<TRIPOS>BOND
     1     1     2    1
     2     2     3    2
     3     3     4    1
     4     4     5    1
     5     5     6    1
     6     4     7    1
     7     7     8   ar
     8     8     9   ar
     9     9    28    1
    10    28    29   am
    11    29    30    2
    12    29    32    1
    13    32    33   ar
    14    33    34   ar
    15    34    35   ar
    16    35    36    1
    17    35    37   ar
    18    37    38   ar
    19     9    10   ar
    20    10    11   ar
    21    11    12   ar
    22    12    13    1
    23    13    14    1
    24    14    15   ar
    25    15    16   ar
    26    16    17   ar
    27    17    22    1
    28    22    23    2
    29    23    24    1
    30    24    25    1
    31    25    26    1
    32    26    27    1
    33    17    18   ar
    34    18    19   ar
    35     6     2    1
    36    12     7   ar
    37    19    14   ar
    38    19     4    1
    39    38    32   ar
    40    27    22    1
    41     1    20    1
    42     1    21    1
    43    28    31    1
@<TRIPOS>MOLECULE
*****
 38 43 0 0 0
SMALL
GASTEIGER

@<TRIPOS>ATOM
      1 N         140.2929  146.2423  162.3922 N.pl3   1  UNL1       -0.3133
      2 C         140.0638  144.8966  163.0140 C.2     1  UNL1        0.2773
      3 N         139.6312  143.6543  162.2931 N.2     1  UNL1       -0.2161
      4 C         139.5271  142.5469  163.2995 C.3     1  UNL1        0.1721
      5 C         139.8953  143.1047  164.6423 C.3     1  UNL1        0.2392
      6 O         140.2270  144.5569  164.4659 O.2     1  UNL1       -0.4474
      7 C         139.1848  142.1328  161.8989 C.ar    1  UNL1        0.0411
      8 C         139.2444  143.1352  160.7847 C.ar    1  UNL1        0.0157
      9 C         138.9021  142.7211  159.3842 C.ar    1  UNL1        0.0505
     10 C         138.5003  141.3046  159.0980 C.ar    1  UNL1        0.0178
     11 C         138.4408  140.3022  160.2122 C.ar    1  UNL1        0.0385
     12 C         138.7830  140.7162  161.6126 C.ar    1  UNL1        0.1436
     13 O         138.7235  139.7138  162.7269 O.3     1  UNL1       -0.4524
     14 C         139.0657  140.1279  164.1274 C.ar    1  UNL1        0.1625
     15 C         139.0062  139.1254  165.2416 C.ar    1  UNL1        0.1359
     16 N         139.3484  139.5395  166.6421 N.ar    1  UNL1       -0.2409
     17 C         139.7502  140.9560  166.9284 C.ar    1  UNL1        0.0794
     18 C         139.8098  141.9585  165.8142 C.ar    1  UNL1        0.0199
     19 C         139.4675  141.5444  164.4137 C.ar    1  UNL1        0.0430
     20 H         140.1588  146.3668  161.4249 H       1  UNL1        0.1466
     21 H         140.5774  147.0009  162.9514 H       1  UNL1        0.1466
     22 C         140.0925  141.3701  168.3289 C.2     1  UNL1        0.0207
     23 C         140.7988  142.6703  168.5752 C.2     1  UNL1       -0.0239
     24 C         141.1411  143.0844  169.9757 C.3     1  UNL1        0.0579
     25 C         140.7770  142.1983  171.1299 C.3     1  UNL1        0.1473
     26 O         140.0707  140.8981  170.8836 O.3     1  UNL1       -0.3486
     27 C         139.7284  140.4841  169.4832 C.3     1  UNL1        0.1698
     28 N         138.9617  143.7236  158.2700 N.am    1  UNL1       -0.2791
     29 C         140.2746  144.0449  157.6195 C.2     1  UNL1        0.2672
     30 O         141.5280  143.3637  158.0833 O.2     1  UNL1       -0.2682
     31 H         138.1390  144.1706  157.9656 H       1  UNL1        0.1552
     32 C         140.3342  145.0474  156.5053 C.ar    1  UNL1        0.1348
     33 C         139.6676  146.3821  156.6609 C.ar    1  UNL1        0.0246
     34 C         139.7271  147.3845  155.5466 C.ar    1  UNL1        0.0147
     35 C         140.4532  147.0523  154.2768 C.ar    1  UNL1        0.0768
     36 CL        140.5128  148.0547  153.1626 Cl      1  UNL1       -0.0806
     37 C         141.1198  145.7175  154.1212 C.ar    1  UNL1        0.1103
     38 N         141.0603  144.7151  155.2355 N.ar    1  UNL1       -0.2384
@<TRIPOS>BOND
     1     1     2    1
     2     2     3    2
     3     3     4    1
     4     4     5    1
     5     5     6    1
     6     4     7    1
     7     7     8   ar
     8     8     9   ar
     9     9    28    1
    10    28    29   am
    11    29    30    2
    12    29    32    1
    13    32    33   ar
    14    33    34   ar
    15    34    35   ar
    16    35    36    1
    17    35    37   ar
    18    37    38   ar
    19     9    10   ar
    20    10    11   ar
    21    11    12   ar
    22    12    13    1
    23    13    14    1
    24    14    15   ar
    25    15    16   ar
    26    16    17   ar
    27    17    22    1
    28    22    23    2
    29    23    24    1
    30    24    25    1
    31    25    26    1
    32    26    27    1
    33    17    18   ar
    34    18    19   ar
    35     6     2    1
    36    12     7   ar
    37    19    14   ar
    38    19     4    1
    39    38    32   ar
    40    27    22    1
    41     1    20    1
    42     1    21    1
    43    28    31    1
@<TRIPOS>MOLECULE
*****
 38 43 0 0 0
SMALL
GASTEIGER

@<TRIPOS>ATOM
      1 N         136.8638  140.9809  162.7723 N.pl3   1  UNL1       -0.3133
      2 C         138.1497  140.5342  163.4024 C.2     1  UNL1        0.2773
      3 N         139.2881  139.8573  162.6983 N.2     1  UNL1       -0.2161
      4 C         140.3649  139.5908  163.7080 C.3     1  UNL1        0.1721
      5 C         139.8920  140.1029  165.0362 C.3     1  UNL1        0.2392
      6 O         138.5229  140.6860  164.8473 O.2     1  UNL1       -0.4474
      7 C         140.7009  139.1281  162.3213 C.ar    1  UNL1        0.0411
      8 C         139.7186  139.3279  161.2054 C.ar    1  UNL1        0.0157
      9 C         140.0545  138.8652  159.8186 C.ar    1  UNL1        0.0505
     10 C         141.3728  138.2029  159.5478 C.ar    1  UNL1        0.0178
     11 C         142.3551  138.0031  160.6636 C.ar    1  UNL1        0.0385
     12 C         142.0191  138.4657  162.0503 C.ar    1  UNL1        0.1436
     13 O         143.0014  138.2660  163.1662 O.3     1  UNL1       -0.4524
     14 C         142.6655  138.7286  164.5530 C.ar    1  UNL1        0.1625
     15 C         143.6478  138.5289  165.6688 C.ar    1  UNL1        0.1359
     16 N         143.3118  138.9915  167.0556 N.ar    1  UNL1       -0.2409
     17 C         141.9936  139.6539  167.3265 C.ar    1  UNL1        0.0794
     18 C         141.0113  139.8537  166.2107 C.ar    1  UNL1        0.0199
     19 C         141.3472  139.3910  164.8239 C.ar    1  UNL1        0.0430
     20 H         136.7107  140.8363  161.8106 H       1  UNL1        0.1466
     21 H         136.1730  141.4185  163.3205 H       1  UNL1        0.1466
     22 C         141.6576  140.1166  168.7133 C.2     1  UNL1        0.0207
     23 C         140.2900  140.6544  169.0138 C.2     1  UNL1       -0.0239
     24 C         139.9540  141.1171  170.4006 C.3     1  UNL1        0.0579
     25 C         140.9857  141.0418  171.4867 C.3     1  UNL1        0.1473
     26 O         142.3533  140.5040  171.1863 O.3     1  UNL1       -0.3486
     27 C         142.6893  140.0413  169.7996 C.3     1  UNL1        0.1698
     28 N         139.0722  139.0650  158.7028 N.am    1  UNL1       -0.2791
     29 C         139.0206  140.3754  157.9745 C.2     1  UNL1        0.2672
     30 O         139.9514  141.4860  158.3622 O.2     1  UNL1       -0.2682
     31 H         138.4614  138.3360  158.4484 H       1  UNL1        0.1552
     32 C         138.0383  140.5751  156.8587 C.ar    1  UNL1        0.1348
     33 C         138.5288  140.8063  155.4601 C.ar    1  UNL1        0.0246
     34 C         137.5465  141.0060  154.3443 C.ar    1  UNL1        0.0147
     35 C         136.0737  140.9746  154.6270 C.ar    1  UNL1        0.0768
     36 CL        135.0914  141.1744  153.5111 Cl      1  UNL1       -0.0806
     37 C         135.5832  140.7435  156.0255 C.ar    1  UNL1        0.1103
     38 N         136.5655  140.5437  157.1414 N.ar    1  UNL1       -0.2384
@<TRIPOS>BOND
     1     1     2    1
     2     2     3    2
     3     3     4    1
     4     4     5    1
     5     5     6    1
     6     4     7    1
     7     7     8   ar
     8     8     9   ar
     9     9    28    1
    10    28    29   am
    11    29    30    2
    12    29    32    1
    13    32    33   ar
    14    33    34   ar
    15    34    35   ar
    16    35    36    1
    17    35    37   ar
    18    37    38   ar
    19     9    10   ar
    20    10    11   ar
    21    11    12   ar
    22    12    13    1
    23    13    14    1
    24    14    15   ar
    25    15    16   ar
    26    16    17   ar
    27    17    22    1
    28    22    23    2
    29    23    24    1
    30    24    25    1
    31    25    26    1
    32    26    27    1
    33    17    18   ar
    34    18    19   ar
    35     6     2    1
    36    12     7   ar
    37    19    14   ar
    38    19     4    1
    39    38    32   ar
    40    27    22    1
    41     1    20    1
    42     1    21    1
    43    28    31    1
@<TRIPOS>MOLECULE
*****
 38 43 0 0 0
SMALL
GASTEIGER

@<TRIPOS>ATOM
      1 N         140.7218  146.1056  162.5367 N.pl3   1  UNL1       -0.3133
      2 C         141.3382  144.7935  162.9219 C.2     1  UNL1        0.2773
      3 N         142.0299  143.8383  161.9949 N.2     1  UNL1       -0.2161
      4 C         142.4903  142.6606  162.8018 C.3     1  UNL1        0.1721
      5 C         142.0832  142.8879  164.2275 C.3     1  UNL1        0.2392
      6 O         141.3711  144.2061  164.3017 O.2     1  UNL1       -0.4474
      7 C         142.8308  142.5718  161.3436 C.ar    1  UNL1        0.0411
      8 C         142.4333  143.6780  160.4119 C.ar    1  UNL1        0.0157
      9 C         142.7738  143.5891  158.9537 C.ar    1  UNL1        0.0505
     10 C         143.5117  142.3941  158.4274 C.ar    1  UNL1        0.0178
     11 C         143.9093  141.2878  159.3592 C.ar    1  UNL1        0.0385
     12 C         143.5688  141.3767  160.8172 C.ar    1  UNL1        0.1436
     13 O         143.9663  140.2705  161.7490 O.3     1  UNL1       -0.4524
     14 C         143.6259  140.3593  163.2072 C.ar    1  UNL1        0.1625
     15 C         144.0234  139.2531  164.1389 C.ar    1  UNL1        0.1359
     16 N         143.6829  139.3420  165.5971 N.ar    1  UNL1       -0.2409
     17 C         142.9449  140.5371  166.1235 C.ar    1  UNL1        0.0794
     18 C         142.5474  141.6433  165.1917 C.ar    1  UNL1        0.0199
     19 C         142.8879  141.5544  163.7335 C.ar    1  UNL1        0.0430
     20 H         140.7509  146.4070  161.5999 H       1  UNL1        0.1466
     21 H         140.2881  146.6653  163.2206 H       1  UNL1        0.1466
     22 C         142.6044  140.6259  167.5816 C.2     1  UNL1        0.0207
     23 C         142.5555  139.3815  168.4176 C.2     1  UNL1       -0.0239
     24 C         142.2150  139.4703  169.8757 C.3     1  UNL1        0.0579
     25 C         141.9235  140.8037  170.4979 C.3     1  UNL1        0.1473
     26 O         141.9724  142.0481  169.6619 O.3     1  UNL1       -0.3486
     27 C         142.3129  141.9593  168.2038 C.3     1  UNL1        0.1698
     28 N         142.3763  144.6954  158.0219 N.am    1  UNL1       -0.2791
     29 C         141.1008  144.5945  157.2388 C.2     1  UNL1        0.2672
     30 O         140.2229  143.3873  157.3876 O.2     1  UNL1       -0.2682
     31 H         142.9524  145.4877  157.9243 H       1  UNL1        0.1552
     32 C         140.7033  145.7007  156.3071 C.ar    1  UNL1        0.1348
     33 C         139.6709  146.7032  156.7304 C.ar    1  UNL1        0.0246
     34 C         139.2734  147.8094  155.7986 C.ar    1  UNL1        0.0147
     35 C         139.9082  147.9131  154.4435 C.ar    1  UNL1        0.0768
     36 CL        139.5107  149.0194  153.5118 Cl      1  UNL1       -0.0806
     37 C         140.9406  146.9107  154.0202 C.ar    1  UNL1        0.1103
     38 N         141.3381  145.8044  154.9520 N.ar    1  UNL1       -0.2384
@<TRIPOS>BOND
     1     1     2    1
     2     2     3    2
     3     3     4    1
     4     4     5    1
     5     5     6    1
     6     4     7    1
     7     7     8   ar
     8     8     9   ar
     9     9    28    1
    10    28    29   am
    11    29    30    2
    12    29    32    1
    13    32    33   ar
    14    33    34   ar
    15    34    35   ar
    16    35    36    1
    17    35    37   ar
    18    37    38   ar
    19     9    10   ar
    20    10    11   ar
    21    11    12   ar
    22    12    13    1
    23    13    14    1
    24    14    15   ar
    25    15    16   ar
    26    16    17   ar
    27    17    22    1
    28    22    23    2
    29    23    24    1
    30    24    25    1
    31    25    26    1
    32    26    27    1
    33    17    18   ar
    34    18    19   ar
    35     6     2    1
    36    12     7   ar
    37    19    14   ar
    38    19     4    1
    39    38    32   ar
    40    27    22    1
    41     1    20    1
    42     1    21    1
    43    28    31    1
@<TRIPOS>MOLECULE
*****
 38 43 0 0 0
SMALL
GASTEIGER

@<TRIPOS>ATOM
      1 N         142.6191  144.8680  162.0762 N.pl3   1  UNL1       -0.3133
      2 C         141.7186  144.6094  160.9047 C.2     1  UNL1        0.2773
      3 N         140.8394  143.4087  160.7167 N.2     1  UNL1       -0.2161
      4 C         140.1167  143.5632  159.4114 C.3     1  UNL1        0.1721
      5 C         140.5492  144.8594  158.7927 C.3     1  UNL1        0.2392
      6 O         141.5393  145.5059  159.7156 O.2     1  UNL1       -0.4474
      7 C         139.7806  142.3012  160.1492 C.ar    1  UNL1        0.0411
      8 C         140.4272  142.0103  161.4710 C.ar    1  UNL1        0.0157
      9 C         140.0911  140.7482  162.2087 C.ar    1  UNL1        0.0505
     10 C         139.1084  139.7771  161.6247 C.ar    1  UNL1        0.0178
     11 C         138.4618  140.0681  160.3029 C.ar    1  UNL1        0.0385
     12 C         138.7978  141.3300  159.5651 C.ar    1  UNL1        0.1436
     13 O         138.1512  141.6209  158.2433 O.3     1  UNL1       -0.4524
     14 C         138.4873  142.8830  157.5056 C.ar    1  UNL1        0.1625
     15 C         137.8406  143.1739  156.1837 C.ar    1  UNL1        0.1359
     16 N         138.1767  144.4360  155.4460 N.ar    1  UNL1       -0.2409
     17 C         139.1595  145.4071  156.0300 C.ar    1  UNL1        0.0794
     18 C         139.8061  145.1162  157.3518 C.ar    1  UNL1        0.0199
     19 C         139.4700  143.8541  158.0896 C.ar    1  UNL1        0.0430
     20 H         142.6687  144.2161  162.8123 H       1  UNL1        0.1466
     21 H         143.1604  145.6896  162.1090 H       1  UNL1        0.1466
     22 C         139.4955  146.6692  155.2922 C.2     1  UNL1        0.0207
     23 C         138.8738  147.9693  155.7082 C.2     1  UNL1       -0.0239
     24 C         139.2099  149.2314  154.9704 C.3     1  UNL1        0.0579
     25 C         140.1677  149.1932  153.8168 C.3     1  UNL1        0.1473
     26 O         140.7894  147.8931  153.4008 O.3     1  UNL1       -0.3486
     27 C         140.4534  146.6311  154.1385 C.3     1  UNL1        0.1698
     28 N         140.7378  140.4573  163.5305 N.am    1  UNL1       -0.2791
     29 C         139.9496  140.6005  164.7988 C.2     1  UNL1        0.2672
     30 O         138.5148  141.0347  164.7452 O.2     1  UNL1       -0.2682
     31 H         141.6795  140.1723  163.5657 H       1  UNL1        0.1552
     32 C         140.5962  140.3096  166.1206 C.ar    1  UNL1        0.1348
     33 C         139.8418  140.5522  167.3942 C.ar    1  UNL1        0.0246
     34 C         140.4884  140.2613  168.7160 C.ar    1  UNL1        0.0147
     35 C         141.8895  139.7278  168.7642 C.ar    1  UNL1        0.0768
     36 CL        142.5362  139.4369  170.0860 Cl      1  UNL1       -0.0806
     37 C         142.6440  139.4851  167.4907 C.ar    1  UNL1        0.1103
     38 N         141.9973  139.7761  166.1689 N.ar    1  UNL1       -0.2384
@<TRIPOS>BOND
     1     1     2    1
     2     2     3    2
     3     3     4    1
     4     4     5    1
     5     5     6    1
     6     4     7    1
     7     7     8   ar
     8     8     9   ar
     9     9    28    1
    10    28    29   am
    11    29    30    2
    12    29    32    1
    13    32    33   ar
    14    33    34   ar
    15    34    35   ar
    16    35    36    1
    17    35    37   ar
    18    37    38   ar
    19     9    10   ar
    20    10    11   ar
    21    11    12   ar
    22    12    13    1
    23    13    14    1
    24    14    15   ar
    25    15    16   ar
    26    16    17   ar
    27    17    22    1
    28    22    23    2
    29    23    24    1
    30    24    25    1
    31    25    26    1
    32    26    27    1
    33    17    18   ar
    34    18    19   ar
    35     6     2    1
    36    12     7   ar
    37    19    14   ar
    38    19     4    1
    39    38    32   ar
    40    27    22    1
    41     1    20    1
    42     1    21    1
    43    28    31    1
@<TRIPOS>MOLECULE
*****
 38 43 0 0 0
SMALL
GASTEIGER

@<TRIPOS>ATOM
      1 N         141.2220  136.9736  162.5470 N.pl3   1  UNL1       -0.3133
      2 C         141.7953  138.2202  163.1533 C.2     1  UNL1        0.2773
      3 N         142.4744  139.3311  162.4085 N.2     1  UNL1       -0.2161
      4 C         142.8889  140.3722  163.4057 C.3     1  UNL1        0.1721
      5 C         142.4660  139.9046  164.7668 C.3     1  UNL1        0.2392
      6 O         141.7901  138.5747  164.6108 O.2     1  UNL1       -0.4474
      7 C         143.2495  140.7068  161.9887 C.ar    1  UNL1        0.0411
      8 C         142.8979  139.7582  160.8812 C.ar    1  UNL1        0.0157
      9 C         143.2585  140.0929  159.4642 C.ar    1  UNL1        0.0505
     10 C         143.9709  141.3761  159.1547 C.ar    1  UNL1        0.0178
     11 C         144.3225  142.3247  160.2621 C.ar    1  UNL1        0.0385
     12 C         143.9619  141.9901  161.6791 C.ar    1  UNL1        0.1436
     13 O         144.3136  142.9386  162.7865 O.3     1  UNL1       -0.4524
     14 C         143.9529  142.6040  164.2036 C.ar    1  UNL1        0.1625
     15 C         144.3046  143.5526  165.3110 C.ar    1  UNL1        0.1359
     16 N         143.9439  143.2179  166.7280 N.ar    1  UNL1       -0.2409
     17 C         143.2315  141.9347  167.0376 C.ar    1  UNL1        0.0794
     18 C         142.8799  140.9861  165.9302 C.ar    1  UNL1        0.0199
     19 C         143.2405  141.3207  164.5131 C.ar    1  UNL1        0.0430
     20 H         141.2743  136.8303  161.5744 H       1  UNL1        0.1466
     21 H         140.7935  136.2988  163.1217 H       1  UNL1        0.1466
     22 C         142.8709  141.6000  168.4547 C.2     1  UNL1        0.0207
     23 C         142.6897  140.1685  168.8644 C.2     1  UNL1       -0.0239
     24 C         142.3291  139.8339  170.2814 C.3     1  UNL1        0.0579
     25 C         142.1496  140.9307  171.2886 C.3     1  UNL1        0.1473
     26 O         142.3307  142.3623  170.8789 O.3     1  UNL1       -0.3486
     27 C         142.6914  142.6969  169.4619 C.3     1  UNL1        0.1698
     28 N         142.9069  139.1443  158.3567 N.am    1  UNL1       -0.2791
     29 C         142.8037  137.6735  158.6333 C.2     1  UNL1        0.2672
     30 O         143.0522  137.1515  160.0174 O.2     1  UNL1       -0.2682
     31 H         142.7438  139.4869  157.4483 H       1  UNL1        0.1552
     32 C         142.4520  136.7250  157.5259 C.ar    1  UNL1        0.1348
     33 C         141.3957  137.0961  156.5276 C.ar    1  UNL1        0.0246
     34 C         141.0441  136.1475  155.4202 C.ar    1  UNL1        0.0147
     35 C         141.7487  134.8278  155.3110 C.ar    1  UNL1        0.0768
     36 CL        141.3970  133.8792  154.2035 Cl      1  UNL1       -0.0806
     37 C         142.8050  134.4567  156.3092 C.ar    1  UNL1        0.1103
     38 N         143.1567  135.4053  157.4167 N.ar    1  UNL1       -0.2384
@<TRIPOS>BOND
     1     1     2    1
     2     2     3    2
     3     3     4    1
     4     4     5    1
     5     5     6    1
     6     4     7    1
     7     7     8   ar
     8     8     9   ar
     9     9    28    1
    10    28    29   am
    11    29    30    2
    12    29    32    1
    13    32    33   ar
    14    33    34   ar
    15    34    35   ar
    16    35    36    1
    17    35    37   ar
    18    37    38   ar
    19     9    10   ar
    20    10    11   ar
    21    11    12   ar
    22    12    13    1
    23    13    14    1
    24    14    15   ar
    25    15    16   ar
    26    16    17   ar
    27    17    22    1
    28    22    23    2
    29    23    24    1
    30    24    25    1
    31    25    26    1
    32    26    27    1
    33    17    18   ar
    34    18    19   ar
    35     6     2    1
    36    12     7   ar
    37    19    14   ar
    38    19     4    1
    39    38    32   ar
    40    27    22    1
    41     1    20    1
    42     1    21    1
    43    28    31    1
@<TRIPOS>MOLECULE
*****
 38 43 0 0 0
SMALL
GASTEIGER

@<TRIPOS>ATOM
      1 N         142.2931  137.2572  162.1903 N.pl3   1  UNL1       -0.3133
      2 C         141.6675  138.5312  162.6757 C.2     1  UNL1        0.2773
      3 N         140.7136  139.3946  161.9046 N.2     1  UNL1       -0.2161
      4 C         140.3424  140.5625  162.7697 C.3     1  UNL1        0.1721
      5 C         141.0670  140.4208  164.0754 C.3     1  UNL1        0.2392
      6 O         141.8859  139.1655  164.0173 O.2     1  UNL1       -0.4474
      7 C         139.6872  140.5702  161.4204 C.ar    1  UNL1        0.0411
      8 C         139.9640  139.4640  160.4459 C.ar    1  UNL1        0.0157
      9 C         139.3088  139.4717  159.0966 C.ar    1  UNL1        0.0505
     10 C         138.3768  140.5855  158.7218 C.ar    1  UNL1        0.0178
     11 C         138.1000  141.6917  159.6963 C.ar    1  UNL1        0.0385
     12 C         138.7552  141.6841  161.0455 C.ar    1  UNL1        0.1436
     13 O         138.4783  142.7903  162.0200 O.3     1  UNL1       -0.4524
     14 C         139.1335  142.7826  163.3694 C.ar    1  UNL1        0.1625
     15 C         138.8567  143.8888  164.3438 C.ar    1  UNL1        0.1359
     16 N         139.5119  143.8811  165.6932 N.ar    1  UNL1       -0.2409
     17 C         140.4440  142.7672  166.0680 C.ar    1  UNL1        0.0794
     18 C         140.7208  141.6610  165.0935 C.ar    1  UNL1        0.0199
     19 C         140.0656  141.6687  163.7442 C.ar    1  UNL1        0.0430
     20 H         142.0866  136.9197  161.2888 H       1  UNL1        0.1466
     21 H         142.9103  136.7587  162.7732 H       1  UNL1        0.1466
     22 C         141.0992  142.7595  167.4173 C.2     1  UNL1        0.0207
     23 C         140.3500  143.2572  168.6177 C.2     1  UNL1       -0.0239
     24 C         141.0052  143.2495  169.9671 C.3     1  UNL1        0.0579
     25 C         142.4096  142.7441  170.1159 C.3     1  UNL1        0.1473
     26 O         143.1587  142.2464  168.9155 O.3     1  UNL1       -0.3486
     27 C         142.5036  142.2541  167.5663 C.3     1  UNL1        0.1698
     28 N         139.5857  138.3655  158.1221 N.am    1  UNL1       -0.2791
     29 C         140.9536  138.2171  157.5245 C.2     1  UNL1        0.2672
     30 O         142.0446  139.1751  157.9015 O.2     1  UNL1       -0.2682
     31 H         138.8696  137.7367  157.8747 H       1  UNL1        0.1552
     32 C         141.2304  137.1109  156.5500 C.ar    1  UNL1        0.1348
     33 C         140.4319  137.0092  155.2843 C.ar    1  UNL1        0.0246
     34 C         140.7088  135.9030  154.3098 C.ar    1  UNL1        0.0147
     35 C         141.7841  134.8985  154.6011 C.ar    1  UNL1        0.0768
     36 CL        142.0609  133.7923  153.6266 Cl      1  UNL1       -0.0806
     37 C         142.5825  135.0003  155.8668 C.ar    1  UNL1        0.1103
     38 N         142.3057  136.1065  156.8413 N.ar    1  UNL1       -0.2384
@<TRIPOS>BOND
     1     1     2    1
     2     2     3    2
     3     3     4    1
     4     4     5    1
     5     5     6    1
     6     4     7    1
     7     7     8   ar
     8     8     9   ar
     9     9    28    1
    10    28    29   am
    11    29    30    2
    12    29    32    1
    13    32    33   ar
    14    33    34   ar
    15    34    35   ar
    16    35    36    1
    17    35    37   ar
    18    37    38   ar
    19     9    10   ar
    20    10    11   ar
    21    11    12   ar
    22    12    13    1
    23    13    14    1
    24    14    15   ar
    25    15    16   ar
    26    16    17   ar
    27    17    22    1
    28    22    23    2
    29    23    24    1
    30    24    25    1
    31    25    26    1
    32    26    27    1
    33    17    18   ar
    34    18    19   ar
    35     6     2    1
    36    12     7   ar
    37    19    14   ar
    38    19     4    1
    39    38    32   ar
    40    27    22    1
    41     1    20    1
    42     1    21    1
    43    28    31    1
@<TRIPOS>MOLECULE
*****
 38 43 0 0 0
SMALL
GASTEIGER

@<TRIPOS>ATOM
      1 N         137.6262  140.6902  161.5457 N.pl3   1  UNL1       -0.3133
      2 C         138.5878  140.0255  160.6057 C.2     1  UNL1        0.2773
      3 N         140.0398  139.7594  160.8722 N.2     1  UNL1       -0.2161
      4 C         140.6156  139.0796  159.6654 C.3     1  UNL1        0.1721
      5 C         139.5195  138.9255  158.6531 C.3     1  UNL1        0.2392
      6 O         138.2663  139.5102  159.2342 O.2     1  UNL1       -0.4474
      7 C         141.6052  139.3023  160.7705 C.ar    1  UNL1        0.0411
      8 C         141.1726  139.9722  162.0409 C.ar    1  UNL1        0.0157
      9 C         142.1622  140.1949  163.1460 C.ar    1  UNL1        0.0505
     10 C         143.5843  139.7476  162.9806 C.ar    1  UNL1        0.0178
     11 C         144.0169  139.0777  161.7101 C.ar    1  UNL1        0.0385
     12 C         143.0273  138.8550  160.6051 C.ar    1  UNL1        0.1436
     13 O         143.4599  138.1851  159.3347 O.3     1  UNL1       -0.4524
     14 C         142.4704  137.9625  158.2296 C.ar    1  UNL1        0.1625
     15 C         142.9030  137.2926  156.9591 C.ar    1  UNL1        0.1359
     16 N         141.9134  137.0699  155.8541 N.ar    1  UNL1       -0.2409
     17 C         140.4912  137.5171  156.0195 C.ar    1  UNL1        0.0794
     18 C         140.0586  138.1870  157.2899 C.ar    1  UNL1        0.0199
     19 C         141.0482  138.4097  158.3950 C.ar    1  UNL1        0.0430
     20 H         137.9337  140.9959  162.4296 H       1  UNL1        0.1466
     21 H         136.6877  140.8208  161.2787 H       1  UNL1        0.1466
     22 C         139.5016  137.2944  154.9144 C.2     1  UNL1        0.0207
     23 C         138.1159  137.8582  155.0236 C.2     1  UNL1       -0.0239
     24 C         137.1263  137.6356  153.9185 C.3     1  UNL1        0.0579
     25 C         137.5225  136.8491  152.7043 C.3     1  UNL1        0.1473
     26 O         138.9081  136.2852  152.5951 O.3     1  UNL1       -0.3486
     27 C         139.8977  136.5079  153.7001 C.3     1  UNL1        0.1698
     28 N         141.7296  140.8648  164.4164 N.am    1  UNL1       -0.2791
     29 C         141.3358  140.0375  165.6042 C.2     1  UNL1        0.2672
     30 O         141.3748  138.5402  165.5214 O.2     1  UNL1       -0.2682
     31 H         141.7040  141.8474  164.4708 H       1  UNL1        0.1552
     32 C         140.9032  140.7074  166.8746 C.ar    1  UNL1        0.1348
     33 C         140.9560  142.2020  166.9899 C.ar    1  UNL1        0.0246
     34 C         140.5234  142.8719  168.2604 C.ar    1  UNL1        0.0147
     35 C         140.0380  142.0472  169.4155 C.ar    1  UNL1        0.0768
     36 CL        139.6054  142.7171  170.6860 Cl      1  UNL1       -0.0806
     37 C         139.9853  140.5525  169.3002 C.ar    1  UNL1        0.1103
     38 N         140.4179  139.8826  168.0298 N.ar    1  UNL1       -0.2384
@<TRIPOS>BOND
     1     1     2    1
     2     2     3    2
     3     3     4    1
     4     4     5    1
     5     5     6    1
     6     4     7    1
     7     7     8   ar
     8     8     9   ar
     9     9    28    1
    10    28    29   am
    11    29    30    2
    12    29    32    1
    13    32    33   ar
    14    33    34   ar
    15    34    35   ar
    16    35    36    1
    17    35    37   ar
    18    37    38   ar
    19     9    10   ar
    20    10    11   ar
    21    11    12   ar
    22    12    13    1
    23    13    14    1
    24    14    15   ar
    25    15    16   ar
    26    16    17   ar
    27    17    22    1
    28    22    23    2
    29    23    24    1
    30    24    25    1
    31    25    26    1
    32    26    27    1
    33    17    18   ar
    34    18    19   ar
    35     6     2    1
    36    12     7   ar
    37    19    14   ar
    38    19     4    1
    39    38    32   ar
    40    27    22    1
    41     1    20    1
    42     1    21    1
    43    28    31    1
@<TRIPOS>MOLECULE
*****
 38 43 0 0 0
SMALL
GASTEIGER

@<TRIPOS>ATOM
      1 N         144.8706  141.7411  161.6092 N.pl3   1  UNL1       -0.3133
      2 C         143.9960  142.5534  160.7009 C.2     1  UNL1        0.2773
      3 N         142.7943  143.3503  161.1146 N.2     1  UNL1       -0.2161
      4 C         142.2251  144.0009  159.8887 C.3     1  UNL1        0.1721
      5 C         143.0749  143.6061  158.7174 C.3     1  UNL1        0.2392
      6 O         144.1693  142.7116  159.2194 O.2     1  UNL1       -0.4474
      7 C         141.4713  144.3085  161.1486 C.ar    1  UNL1        0.0411
      8 C         141.9247  143.7270  162.4548 C.ar    1  UNL1        0.0157
      9 C         141.1710  144.0346  163.7147 C.ar    1  UNL1        0.0505
     10 C         139.9639  144.9238  163.6683 C.ar    1  UNL1        0.0178
     11 C         139.5105  145.5054  162.3621 C.ar    1  UNL1        0.0385
     12 C         140.2642  145.1977  161.1023 C.ar    1  UNL1        0.1436
     13 O         139.8108  145.7793  159.7961 O.3     1  UNL1       -0.4524
     14 C         140.5646  145.4716  158.5362 C.ar    1  UNL1        0.1625
     15 C         140.1112  146.0532  157.2300 C.ar    1  UNL1        0.1359
     16 N         140.8649  145.7455  155.9701 N.ar    1  UNL1       -0.2409
     17 C         142.0720  144.8563  156.0164 C.ar    1  UNL1        0.0794
     18 C         142.5254  144.2748  157.3227 C.ar    1  UNL1        0.0199
     19 C         141.7717  144.5824  158.5825 C.ar    1  UNL1        0.0430
     20 H         144.6746  141.6989  162.5731 H       1  UNL1        0.1466
     21 H         145.6407  141.2501  161.2415 H       1  UNL1        0.1466
     22 C         142.8258  144.5487  154.7566 C.2     1  UNL1        0.0207
     23 C         142.6779  145.4382  153.5579 C.2     1  UNL1       -0.0239
     24 C         143.4316  145.1306  152.2980 C.3     1  UNL1        0.0579
     25 C         144.3332  143.9334  152.2369 C.3     1  UNL1        0.1473
     26 O         144.4810  143.0438  153.4355 O.3     1  UNL1       -0.3486
     27 C         143.7274  143.3514  154.6953 C.3     1  UNL1        0.1698
     28 N         141.6244  143.4531  165.0209 N.am    1  UNL1       -0.2791
     29 C         141.1689  142.0839  165.4307 C.2     1  UNL1        0.2672
     30 O         140.2600  141.2962  164.5343 O.2     1  UNL1       -0.2682
     31 H         142.2209  143.9700  165.6093 H       1  UNL1        0.1552
     32 C         141.6223  141.5023  166.7369 C.ar    1  UNL1        0.1348
     33 C         142.1753  140.1089  166.7858 C.ar    1  UNL1        0.0246
     34 C         142.6287  139.5273  168.0920 C.ar    1  UNL1        0.0147
     35 C         142.5291  140.3392  169.3494 C.ar    1  UNL1        0.0768
     36 CL        142.9825  139.7577  170.6556 Cl      1  UNL1       -0.0806
     37 C         141.9760  141.7327  169.3005 C.ar    1  UNL1        0.1103
     38 N         141.5226  142.3142  167.9943 N.ar    1  UNL1       -0.2384
@<TRIPOS>BOND
     1     1     2    1
     2     2     3    2
     3     3     4    1
     4     4     5    1
     5     5     6    1
     6     4     7    1
     7     7     8   ar
     8     8     9   ar
     9     9    28    1
    10    28    29   am
    11    29    30    2
    12    29    32    1
    13    32    33   ar
    14    33    34   ar
    15    34    35   ar
    16    35    36    1
    17    35    37   ar
    18    37    38   ar
    19     9    10   ar
    20    10    11   ar
    21    11    12   ar
    22    12    13    1
    23    13    14    1
    24    14    15   ar
    25    15    16   ar
    26    16    17   ar
    27    17    22    1
    28    22    23    2
    29    23    24    1
    30    24    25    1
    31    25    26    1
    32    26    27    1
    33    17    18   ar
    34    18    19   ar
    35     6     2    1
    36    12     7   ar
    37    19    14   ar
    38    19     4    1
    39    38    32   ar
    40    27    22    1
    41     1    20    1
    42     1    21    1
    43    28    31    1
