@<TRIPOS>MOLECULE
*****
 31 34 0 0 0
SMALL
GASTEIGER

@<TRIPOS>ATOM
      1 C         140.8932  140.6767  165.5700 C.3     1  UNL1        0.1686
      2 C         139.5292  140.2645  166.0386 C.3     1  UNL1        0.0595
      3 C         138.9883  138.9133  165.6760 C.3     1  UNL1        0.0615
      4 C         138.8639  137.5342  165.0993 C.3     1  UNL1        0.0175
      5 C         140.1266  137.2300  164.3489 C.3     1  UNL1        0.0175
      6 C         141.0313  138.4211  164.4617 C.3     1  UNL1        0.0615
      7 C         141.7162  139.7377  164.7387 C.3     1  UNL1        0.0595
      8 N         140.3278  139.4615  165.2820 N.3     1  UNL1       -0.2674
      9 O         141.4343  142.0280  165.9325 O.3     1  UNL1       -0.4791
     10 C         140.9849  143.3282  169.6550 C.ar    1  UNL1        0.0561
     11 C         142.3337  143.0123  170.2304 C.ar    1  UNL1        0.0047
     12 C         143.3826  142.3684  169.3731 C.ar    1  UNL1        0.0033
     13 C         143.0828  142.0403  167.9405 C.ar    1  UNL1        0.0369
     14 C         141.7341  142.3561  167.3652 C.ar    1  UNL1        0.1385
     15 C         140.6851  143.0001  168.2224 C.ar    1  UNL1        0.0414
     16 N         139.0384  143.1238  171.3637 N.am    1  UNL1       -0.3253
     17 C         139.9360  143.9722  170.5124 C.2     1  UNL1        0.2428
     18 O         139.7845  145.4646  170.5184 O.2     1  UNL1       -0.2704
     19 H         138.3499  143.5465  171.9264 H       1  UNL1        0.1453
     20 H         139.1378  142.1444  171.3597 H       1  UNL1        0.1453
     21 C         140.8687  140.8127  165.6446 C.3     1  UNL1        0.1587
     22 C         141.0239  141.8665  164.5885 C.2     1  UNL1        0.2425
     23 O         142.3891  142.3750  164.2312 O.2     1  UNL1       -0.2733
     24 N         139.8139  142.4119  163.8897 N.am    1  UNL1       -0.2828
     25 H         138.9179  142.0781  164.1242 H       1  UNL1        0.1549
     26 C         139.9690  143.4657  162.8335 C.ar    1  UNL1        0.0503
     27 C         139.7507  144.9095  163.1770 C.ar    1  UNL1        0.0147
     28 C         139.9058  145.9634  162.1210 C.ar    1  UNL1        0.0013
     29 C         140.2792  145.5735  160.7214 C.ar    1  UNL1        0.0001
     30 C         140.4976  144.1298  160.3780 C.ar    1  UNL1        0.0013
     31 C         140.3425  143.0759  161.4340 C.ar    1  UNL1        0.0147
@<TRIPOS>BOND
     1    16    17   am
     2    17    18    2
     3    17    10    1
     4    10    11   ar
     5    11    12   ar
     6    12    13   ar
     7    13    14   ar
     8    14     9    1
     9     1     9    1
    10     1     2    1
    11     3     2    1
    12     3     4    1
    13     4     5    1
    14     6     5    1
    15     6     7    1
    16     6     8    1
    17     8    21    1
    18    21    22    1
    19    22    23    2
    20    22    24   am
    21    24    26    1
    22    26    27   ar
    23    27    28   ar
    24    28    29   ar
    25    29    30   ar
    26    30    31   ar
    27    14    15   ar
    28    15    10   ar
    29     7     1    1
    30    31    26   ar
    31     8     3    1
    32    16    19    1
    33    16    20    1
    34    24    25    1
@<TRIPOS>MOLECULE
*****
 31 34 0 0 0
SMALL
GASTEIGER

@<TRIPOS>ATOM
      1 C         139.7000  141.2021  165.0543 C.3     1  UNL1        0.1686
      2 C         140.4083  142.4915  165.3474 C.3     1  UNL1        0.0595
      3 C         139.8005  143.7948  164.9208 C.3     1  UNL1        0.0615
      4 C         138.8614  144.8068  164.3343 C.3     1  UNL1        0.0175
      5 C         137.6928  144.0704  163.7495 C.3     1  UNL1        0.0175
      6 C         137.9096  142.6033  163.9746 C.3     1  UNL1        0.0615
      7 C         138.3841  141.2161  164.3346 C.3     1  UNL1        0.0595
      8 N         139.2123  142.4330  164.6985 N.3     1  UNL1       -0.2674
      9 O         140.3078  139.8987  165.4810 O.3     1  UNL1       -0.4791
     10 C         140.6519  139.9146  169.4346 C.ar    1  UNL1        0.0561
     11 C         142.0792  139.4826  169.5967 C.ar    1  UNL1        0.0047
     12 C         142.9160  139.1893  168.3868 C.ar    1  UNL1        0.0033
     13 C         142.3255  139.3280  167.0150 C.ar    1  UNL1        0.0369
     14 C         140.8983  139.7600  166.8529 C.ar    1  UNL1        0.1385
     15 C         140.0615  140.0533  168.0627 C.ar    1  UNL1        0.0414
     16 N         138.3621  139.8359  170.6596 N.am    1  UNL1       -0.3253
     17 C         139.8152  140.2079  170.6445 C.2     1  UNL1        0.2428
     18 O         140.4315  140.8734  171.8393 O.2     1  UNL1       -0.2704
     19 H         137.8129  140.0284  171.4537 H       1  UNL1        0.1453
     20 H         137.9576  139.3991  169.8755 H       1  UNL1        0.1453
     21 C         139.8200  141.1297  165.1251 C.3     1  UNL1        0.1587
     22 C         140.3327  140.1680  164.0944 C.2     1  UNL1        0.2425
     23 O         139.7649  138.7821  164.0135 O.2     1  UNL1       -0.2733
     24 N         141.4132  140.5925  163.1445 N.am    1  UNL1       -0.2828
     25 H         141.7859  141.5021  163.1976 H       1  UNL1        0.1549
     26 C         141.9259  139.6309  162.1137 C.ar    1  UNL1        0.0503
     27 C         141.1864  139.4527  160.8208 C.ar    1  UNL1        0.0147
     28 C         141.6991  138.4912  159.7899 C.ar    1  UNL1        0.0013
     29 C         142.9512  137.7078  160.0520 C.ar    1  UNL1        0.0001
     30 C         143.6906  137.8860  161.3448 C.ar    1  UNL1        0.0013
     31 C         143.1780  138.8475  162.3757 C.ar    1  UNL1        0.0147
@<TRIPOS>BOND
     1    16    17   am
     2    17    18    2
     3    17    10    1
     4    10    11   ar
     5    11    12   ar
     6    12    13   ar
     7    13    14   ar
     8    14     9    1
     9     1     9    1
    10     1     2    1
    11     3     2    1
    12     3     4    1
    13     4     5    1
    14     6     5    1
    15     6     7    1
    16     6     8    1
    17     8    21    1
    18    21    22    1
    19    22    23    2
    20    22    24   am
    21    24    26    1
    22    26    27   ar
    23    27    28   ar
    24    28    29   ar
    25    29    30   ar
    26    30    31   ar
    27    14    15   ar
    28    15    10   ar
    29     7     1    1
    30    31    26   ar
    31     8     3    1
    32    16    19    1
    33    16    20    1
    34    24    25    1
@<TRIPOS>MOLECULE
*****
 31 34 0 0 0
SMALL
GASTEIGER

@<TRIPOS>ATOM
      1 C         141.9580  142.2697  165.3224 C.3     1  UNL1        0.1686
      2 C         143.4194  142.6042  165.2730 C.3     1  UNL1        0.0595
      3 C         143.8726  143.8975  164.6632 C.3     1  UNL1        0.0615
      4 C         143.8630  145.2390  163.9921 C.3     1  UNL1        0.0175
      5 C         142.4371  145.5995  163.6971 C.3     1  UNL1        0.0175
      6 C         141.5655  144.4808  164.1859 C.3     1  UNL1        0.0615
      7 C         140.9498  143.2286  164.7620 C.3     1  UNL1        0.0595
      8 N         142.4527  143.4289  164.7830 N.3     1  UNL1       -0.2674
      9 O         141.5048  140.9763  165.9323 O.3     1  UNL1       -0.4791
     10 C         141.1213  141.5296  169.8433 C.ar    1  UNL1        0.0561
     11 C         141.8598  140.3359  170.3722 C.ar    1  UNL1        0.0047
     12 C         142.4800  139.3557  169.4211 C.ar    1  UNL1        0.0033
     13 C         142.3616  139.5692  167.9412 C.ar    1  UNL1        0.0369
     14 C         141.6231  140.7628  167.4123 C.ar    1  UNL1        0.1385
     15 C         141.0030  141.7430  168.3633 C.ar    1  UNL1        0.0414
     16 N         140.0097  143.8347  170.2914 N.am    1  UNL1       -0.3253
     17 C         140.5011  142.5098  170.7944 C.2     1  UNL1        0.2428
     18 O         140.3725  142.1650  172.2487 O.2     1  UNL1       -0.2704
     19 H         139.6026  144.4780  170.9156 H       1  UNL1        0.1453
     20 H         140.0941  144.0609  169.3370 H       1  UNL1        0.1453
     21 C         141.9995  142.1356  165.3928 C.3     1  UNL1        0.1587
     22 C         141.3404  141.0938  164.5383 C.2     1  UNL1        0.2425
     23 O         142.1770  140.1037  163.7835 O.2     1  UNL1       -0.2733
     24 N         139.8447  141.0421  164.4386 N.am    1  UNL1       -0.2828
     25 H         139.2956  141.6919  164.9340 H       1  UNL1        0.1549
     26 C         139.1855  140.0003  163.5841 C.ar    1  UNL1        0.0503
     27 C         139.2507  138.5548  163.9797 C.ar    1  UNL1        0.0147
     28 C         138.5915  137.5129  163.1253 C.ar    1  UNL1        0.0013
     29 C         137.8671  137.9165  161.8753 C.ar    1  UNL1        0.0001
     30 C         137.8019  139.3620  161.4798 C.ar    1  UNL1        0.0013
     31 C         138.4610  140.4038  162.3342 C.ar    1  UNL1        0.0147
@<TRIPOS>BOND
     1    16    17   am
     2    17    18    2
     3    17    10    1
     4    10    11   ar
     5    11    12   ar
     6    12    13   ar
     7    13    14   ar
     8    14     9    1
     9     1     9    1
    10     1     2    1
    11     3     2    1
    12     3     4    1
    13     4     5    1
    14     6     5    1
    15     6     7    1
    16     6     8    1
    17     8    21    1
    18    21    22    1
    19    22    23    2
    20    22    24   am
    21    24    26    1
    22    26    27   ar
    23    27    28   ar
    24    28    29   ar
    25    29    30   ar
    26    30    31   ar
    27    14    15   ar
    28    15    10   ar
    29     7     1    1
    30    31    26   ar
    31     8     3    1
    32    16    19    1
    33    16    20    1
    34    24    25    1
@<TRIPOS>MOLECULE
*****
 31 34 0 0 0
SMALL
GASTEIGER

@<TRIPOS>ATOM
      1 C         140.6130  140.8085  165.2280 C.3     1  UNL1        0.1686
      2 C         139.2953  140.2492  165.6761 C.3     1  UNL1        0.0595
      3 C         138.8897  138.8646  165.2658 C.3     1  UNL1        0.0615
      4 C         138.9018  137.5003  164.6426 C.3     1  UNL1        0.0175
      5 C         140.1893  137.3467  163.8883 C.3     1  UNL1        0.0175
      6 C         140.9729  138.6161  164.0454 C.3     1  UNL1        0.0615
      7 C         141.5252  139.9831  164.3697 C.3     1  UNL1        0.0595
      8 N         140.1697  139.5542  164.8968 N.3     1  UNL1       -0.2674
      9 O         141.0187  142.1932  165.6383 O.3     1  UNL1       -0.4791
     10 C         142.6099  142.4397  169.2656 C.ar    1  UNL1        0.0561
     11 C         141.5348  143.1880  169.9965 C.ar    1  UNL1        0.0047
     12 C         140.2877  143.6047  169.2746 C.ar    1  UNL1        0.0033
     13 C         140.1157  143.2731  167.8220 C.ar    1  UNL1        0.0369
     14 C         141.1907  142.5248  167.0911 C.ar    1  UNL1        0.1385
     15 C         142.4378  142.1081  167.8128 C.ar    1  UNL1        0.0414
     16 N         143.9464  140.6585  170.6039 N.am    1  UNL1       -0.3253
     17 C         143.8570  142.0230  169.9874 C.2     1  UNL1        0.2428
     18 O         145.0148  142.9709  170.0928 O.2     1  UNL1       -0.2704
     19 H         144.7649  140.3850  171.0776 H       1  UNL1        0.1453
     20 H         143.1865  140.0363  170.5347 H       1  UNL1        0.1453
     21 C         140.5753  140.9388  165.3071 C.3     1  UNL1        0.1587
     22 C         140.7676  142.0030  164.2676 C.2     1  UNL1        0.2425
     23 O         142.1418  142.5313  163.9805 O.2     1  UNL1       -0.2733
     24 N         139.5858  142.5388  163.5153 N.am    1  UNL1       -0.2828
     25 H         138.6839  142.1921  163.7038 H       1  UNL1        0.1549
     26 C         139.7780  143.6030  162.4758 C.ar    1  UNL1        0.0503
     27 C         139.6307  145.0490  162.8468 C.ar    1  UNL1        0.0147
     28 C         139.8230  146.1133  161.8073 C.ar    1  UNL1        0.0013
     29 C         140.1625  145.7316  160.3969 C.ar    1  UNL1        0.0001
     30 C         140.3098  144.2857  160.0260 C.ar    1  UNL1        0.0013
     31 C         140.1176  143.2214  161.0655 C.ar    1  UNL1        0.0147
@<TRIPOS>BOND
     1    16    17   am
     2    17    18    2
     3    17    10    1
     4    10    11   ar
     5    11    12   ar
     6    12    13   ar
     7    13    14   ar
     8    14     9    1
     9     1     9    1
    10     1     2    1
    11     3     2    1
    12     3     4    1
    13     4     5    1
    14     6     5    1
    15     6     7    1
    16     6     8    1
    17     8    21    1
    18    21    22    1
    19    22    23    2
    20    22    24   am
    21    24    26    1
    22    26    27   ar
    23    27    28   ar
    24    28    29   ar
    25    29    30   ar
    26    30    31   ar
    27    14    15   ar
    28    15    10   ar
    29     7     1    1
    30    31    26   ar
    31     8     3    1
    32    16    19    1
    33    16    20    1
    34    24    25    1
@<TRIPOS>MOLECULE
*****
 31 34 0 0 0
SMALL
GASTEIGER

@<TRIPOS>ATOM
      1 C         141.9015  140.6201  165.3836 C.3     1  UNL1        0.1686
      2 C         142.5797  139.3132  165.6698 C.3     1  UNL1        0.0595
      3 C         143.9938  139.0884  165.2228 C.3     1  UNL1        0.0615
      4 C         145.3489  139.3007  164.6158 C.3     1  UNL1        0.0175
      5 C         145.3822  140.6800  164.0272 C.3     1  UNL1        0.0175
      6 C         144.0476  141.3201  164.2705 C.3     1  UNL1        0.0615
      7 C         142.6373  141.7022  164.6504 C.3     1  UNL1        0.0595
      8 N         143.1895  140.3364  165.0094 N.3     1  UNL1       -0.2674
      9 O         140.4873  140.8450  165.8306 O.3     1  UNL1       -0.4791
     10 C         140.3571  142.5234  169.4245 C.ar    1  UNL1        0.0561
     11 C         139.5820  141.4928  170.1907 C.ar    1  UNL1        0.0047
     12 C         139.1087  140.2463  169.5036 C.ar    1  UNL1        0.0033
     13 C         139.4105  140.0304  168.0503 C.ar    1  UNL1        0.0369
     14 C         140.1855  141.0610  167.2840 C.ar    1  UNL1        0.1385
     15 C         140.6589  142.3074  167.9711 C.ar    1  UNL1        0.0414
     16 N         139.8954  144.9292  170.2899 N.am    1  UNL1       -0.3253
     17 C         140.8304  143.7699  170.1117 C.2     1  UNL1        0.2428
     18 O         142.2388  143.8571  170.6207 O.2     1  UNL1       -0.2704
     19 H         140.2060  145.7473  170.7409 H       1  UNL1        0.1453
     20 H         138.9710  144.8720  169.9559 H       1  UNL1        0.1453
     21 C         141.7754  140.5613  165.4564 C.3     1  UNL1        0.1587
     22 C         140.6689  140.6167  164.4451 C.2     1  UNL1        0.2425
     23 O         139.5712  141.6287  164.5892 O.2     1  UNL1       -0.2733
     24 N         140.6603  139.6602  163.2898 N.am    1  UNL1       -0.2828
     25 H         141.3808  138.9960  163.1953 H       1  UNL1        0.1549
     26 C         139.5538  139.7155  162.2785 C.ar    1  UNL1        0.0503
     27 C         138.4277  138.7267  162.3441 C.ar    1  UNL1        0.0147
     28 C         137.3212  138.7820  161.3328 C.ar    1  UNL1        0.0013
     29 C         137.3409  139.8261  160.2559 C.ar    1  UNL1        0.0001
     30 C         138.4670  140.8148  160.1904 C.ar    1  UNL1        0.0013
     31 C         139.5734  140.7595  161.2017 C.ar    1  UNL1        0.0147
@<TRIPOS>BOND
     1    16    17   am
     2    17    18    2
     3    17    10    1
     4    10    11   ar
     5    11    12   ar
     6    12    13   ar
     7    13    14   ar
     8    14     9    1
     9     1     9    1
    10     1     2    1
    11     3     2    1
    12     3     4    1
    13     4     5    1
    14     6     5    1
    15     6     7    1
    16     6     8    1
    17     8    21    1
    18    21    22    1
    19    22    23    2
    20    22    24   am
    21    24    26    1
    22    26    27   ar
    23    27    28   ar
    24    28    29   ar
    25    29    30   ar
    26    30    31   ar
    27    14    15   ar
    28    15    10   ar
    29     7     1    1
    30    31    26   ar
    31     8     3    1
    32    16    19    1
    33    16    20    1
    34    24    25    1
@<TRIPOS>MOLECULE
*****
 31 34 0 0 0
SMALL
GASTEIGER

@<TRIPOS>ATOM
      1 C         142.0366  141.9470  165.1633 C.3     1  UNL1        0.1686
      2 C         143.4886  142.3156  165.0871 C.3     1  UNL1        0.0595
      3 C         143.8921  143.6806  164.6141 C.3     1  UNL1        0.0615
      4 C         143.8297  145.0909  164.1070 C.3     1  UNL1        0.0175
      5 C         142.3860  145.4535  163.9218 C.3     1  UNL1        0.0175
      6 C         141.5561  144.2673  164.3145 C.3     1  UNL1        0.0615
      7 C         140.9881  142.9436  164.7664 C.3     1  UNL1        0.0595
      8 N         142.4870  143.1716  164.7424 N.3     1  UNL1       -0.2674
      9 O         141.6331  140.5819  165.6364 O.3     1  UNL1       -0.4791
     10 C         141.9981  139.5060  169.4389 C.ar    1  UNL1        0.0561
     11 C         140.6549  139.9026  169.9759 C.ar    1  UNL1        0.0047
     12 C         139.6377  140.5256  169.0663 C.ar    1  UNL1        0.0033
     13 C         139.9638  140.7520  167.6199 C.ar    1  UNL1        0.0369
     14 C         141.3070  140.3554  167.0829 C.ar    1  UNL1        0.1385
     15 C         142.3242  139.7325  167.9923 C.ar    1  UNL1        0.0414
     16 N         143.7697  139.7353  171.3254 N.am    1  UNL1       -0.3253
     17 C         143.0153  138.8830  170.3484 C.2     1  UNL1        0.2428
     18 O         143.2780  137.4077  170.2810 O.2     1  UNL1       -0.2704
     19 H         144.4373  139.3264  171.9223 H       1  UNL1        0.1453
     20 H         143.5973  140.7036  171.3696 H       1  UNL1        0.1453
     21 C         142.0835  141.8065  165.2154 C.3     1  UNL1        0.1587
     22 C         141.5645  140.7962  164.2356 C.2     1  UNL1        0.2425
     23 O         142.3537  139.5526  163.9517 O.2     1  UNL1       -0.2733
     24 N         140.2564  141.0295  163.5398 N.am    1  UNL1       -0.2828
     25 H         139.7385  141.8457  163.7261 H       1  UNL1        0.1549
     26 C         139.7374  140.0192  162.5600 C.ar    1  UNL1        0.0503
     27 C         138.6968  139.0266  162.9866 C.ar    1  UNL1        0.0147
     28 C         138.1777  138.0163  162.0069 C.ar    1  UNL1        0.0013
     29 C         138.6992  137.9986  160.6005 C.ar    1  UNL1        0.0001
     30 C         139.7397  138.9912  160.1739 C.ar    1  UNL1        0.0013
     31 C         140.2588  140.0015  161.1536 C.ar    1  UNL1        0.0147
@<TRIPOS>BOND
     1    16    17   am
     2    17    18    2
     3    17    10    1
     4    10    11   ar
     5    11    12   ar
     6    12    13   ar
     7    13    14   ar
     8    14     9    1
     9     1     9    1
    10     1     2    1
    11     3     2    1
    12     3     4    1
    13     4     5    1
    14     6     5    1
    15     6     7    1
    16     6     8    1
    17     8    21    1
    18    21    22    1
    19    22    23    2
    20    22    24   am
    21    24    26    1
    22    26    27   ar
    23    27    28   ar
    24    28    29   ar
    25    29    30   ar
    26    30    31   ar
    27    14    15   ar
    28    15    10   ar
    29     7     1    1
    30    31    26   ar
    31     8     3    1
    32    16    19    1
    33    16    20    1
    34    24    25    1
@<TRIPOS>MOLECULE
*****
 31 34 0 0 0
SMALL
GASTEIGER

@<TRIPOS>ATOM
      1 C         140.3114  142.1462  165.1276 C.3     1  UNL1        0.1686
      2 C         138.8246  141.9899  165.0060 C.3     1  UNL1        0.0595
      3 C         138.0194  143.0220  164.2737 C.3     1  UNL1        0.0615
      4 C         137.6404  144.2435  163.4899 C.3     1  UNL1        0.0175
      5 C         138.8924  145.0199  163.2074 C.3     1  UNL1        0.0175
      6 C         140.0451  144.2782  163.8167 C.3     1  UNL1        0.0615
      7 C         140.9931  143.3347  164.5168 C.3     1  UNL1        0.0595
      8 N         139.5056  143.0434  164.4756 N.3     1  UNL1       -0.2674
      9 O         141.1168  141.1141  165.8600 O.3     1  UNL1       -0.4791
     10 C         141.4093  141.3713  169.8094 C.ar    1  UNL1        0.0561
     11 C         142.7522  142.0240  169.9523 C.ar    1  UNL1        0.0047
     12 C         143.5500  142.3735  168.7310 C.ar    1  UNL1        0.0033
     13 C         143.0049  142.0702  167.3670 C.ar    1  UNL1        0.0369
     14 C         141.6619  141.4174  167.2241 C.ar    1  UNL1        0.1385
     15 C         140.8642  141.0680  168.4452 C.ar    1  UNL1        0.0414
     16 N         139.9919  139.6617  171.1579 N.am    1  UNL1       -0.3253
     17 C         140.6116  141.0218  171.0306 C.2     1  UNL1        0.2428
     18 O         140.4335  142.0325  172.1247 O.2     1  UNL1       -0.2704
     19 H         139.4683  139.4324  171.9595 H       1  UNL1        0.1453
     20 H         140.1088  138.9984  170.4399 H       1  UNL1        0.1453
     21 C         140.3108  142.0113  165.2080 C.3     1  UNL1        0.1587
     22 C         140.9103  140.8579  164.4595 C.2     1  UNL1        0.2425
     23 O         140.8577  139.4769  165.0426 O.2     1  UNL1       -0.2733
     24 N         141.5623  141.0855  163.1280 N.am    1  UNL1       -0.2828
     25 H         141.5967  141.9920  162.7454 H       1  UNL1        0.1549
     26 C         142.1618  139.9322  162.3795 C.ar    1  UNL1        0.0503
     27 C         143.5604  139.4849  162.6860 C.ar    1  UNL1        0.0147
     28 C         144.1600  138.3315  161.9375 C.ar    1  UNL1        0.0013
     29 C         143.3610  137.6254  160.8824 C.ar    1  UNL1        0.0001
     30 C         141.9624  138.0727  160.5759 C.ar    1  UNL1        0.0013
     31 C         141.3628  139.2261  161.3244 C.ar    1  UNL1        0.0147
@<TRIPOS>BOND
     1    16    17   am
     2    17    18    2
     3    17    10    1
     4    10    11   ar
     5    11    12   ar
     6    12    13   ar
     7    13    14   ar
     8    14     9    1
     9     1     9    1
    10     1     2    1
    11     3     2    1
    12     3     4    1
    13     4     5    1
    14     6     5    1
    15     6     7    1
    16     6     8    1
    17     8    21    1
    18    21    22    1
    19    22    23    2
    20    22    24   am
    21    24    26    1
    22    26    27   ar
    23    27    28   ar
    24    28    29   ar
    25    29    30   ar
    26    30    31   ar
    27    14    15   ar
    28    15    10   ar
    29     7     1    1
    30    31    26   ar
    31     8     3    1
    32    16    19    1
    33    16    20    1
    34    24    25    1
@<TRIPOS>MOLECULE
*****
 31 34 0 0 0
SMALL
GASTEIGER

@<TRIPOS>ATOM
      1 C         141.6662  140.7737  164.7242 C.3     1  UNL1        0.1686
      2 C         143.0460  140.9377  165.2891 C.3     1  UNL1        0.0595
      3 C         144.1920  140.1656  164.7055 C.3     1  UNL1        0.0615
      4 C         144.9940  139.2351  163.8448 C.3     1  UNL1        0.0175
      5 C         144.0624  138.6000  162.8556 C.3     1  UNL1        0.0175
      6 C         142.6845  139.1380  163.1049 C.3     1  UNL1        0.0615
      7 C         141.4324  139.8376  163.5757 C.3     1  UNL1        0.0595
      8 N         142.7647  140.1056  164.2482 N.3     1  UNL1       -0.2674
      9 O         140.5201  141.5458  165.3078 O.3     1  UNL1       -0.4791
     10 C         140.4217  142.5874  169.1360 C.ar    1  UNL1        0.0561
     11 C         139.7309  141.3987  169.7356 C.ar    1  UNL1        0.0047
     12 C         139.3031  140.2589  168.8592 C.ar    1  UNL1        0.0033
     13 C         139.5662  140.3080  167.3833 C.ar    1  UNL1        0.0369
     14 C         140.2570  141.4968  166.7838 C.ar    1  UNL1        0.1385
     15 C         140.6848  142.6365  167.6601 C.ar    1  UNL1        0.0414
     16 N         139.9071  144.8635  170.2783 N.am    1  UNL1       -0.3253
     17 C         140.8495  143.7272  170.0124 C.2     1  UNL1        0.2428
     18 O         142.2197  143.7306  170.6229 O.2     1  UNL1       -0.2704
     19 H         140.1878  145.6115  170.8535 H       1  UNL1        0.1453
     20 H         139.0078  144.8612  169.8777 H       1  UNL1        0.1453
     21 C         141.6187  140.8777  164.8319 C.3     1  UNL1        0.1587
     22 C         140.9415  141.9427  164.0211 C.2     1  UNL1        0.2425
     23 O         139.4446  142.0381  164.0090 O.2     1  UNL1       -0.2733
     24 N         141.7613  142.9122  163.2224 N.am    1  UNL1       -0.2828
     25 H         142.7438  142.8495  163.2303 H       1  UNL1        0.1549
     26 C         141.0843  143.9771  162.4116 C.ar    1  UNL1        0.0503
     27 C         140.5746  145.2190  163.0810 C.ar    1  UNL1        0.0147
     28 C         139.8975  146.2841  162.2703 C.ar    1  UNL1        0.0013
     29 C         139.7301  146.1072  160.7901 C.ar    1  UNL1        0.0001
     30 C         140.2398  144.8654  160.1207 C.ar    1  UNL1        0.0013
     31 C         140.9168  143.8003  160.9315 C.ar    1  UNL1        0.0147
@<TRIPOS>BOND
     1    16    17   am
     2    17    18    2
     3    17    10    1
     4    10    11   ar
     5    11    12   ar
     6    12    13   ar
     7    13    14   ar
     8    14     9    1
     9     1     9    1
    10     1     2    1
    11     3     2    1
    12     3     4    1
    13     4     5    1
    14     6     5    1
    15     6     7    1
    16     6     8    1
    17     8    21    1
    18    21    22    1
    19    22    23    2
    20    22    24   am
    21    24    26    1
    22    26    27   ar
    23    27    28   ar
    24    28    29   ar
    25    29    30   ar
    26    30    31   ar
    27    14    15   ar
    28    15    10   ar
    29     7     1    1
    30    31    26   ar
    31     8     3    1
    32    16    19    1
    33    16    20    1
    34    24    25    1
@<TRIPOS>MOLECULE
*****
 31 34 0 0 0
SMALL
GASTEIGER

@<TRIPOS>ATOM
      1 C         141.7060  140.8772  164.0462 C.3     1  UNL1        0.1686
      2 C         140.8438  139.9153  163.2838 C.3     1  UNL1        0.0595
      3 C         141.4751  138.8209  162.4752 C.3     1  UNL1        0.0615
      4 C         142.4957  137.9281  161.8339 C.3     1  UNL1        0.0175
      5 C         143.8557  138.4070  162.2475 C.3     1  UNL1        0.0175
      6 C         143.6756  139.5958  163.1443 C.3     1  UNL1        0.0615
      7 C         143.1995  140.7447  164.0001 C.3     1  UNL1        0.0595
      8 N         142.2043  139.8516  163.2850 N.3     1  UNL1       -0.2674
      9 O         141.0747  141.9716  164.8549 O.3     1  UNL1       -0.4791
     10 C         139.6600  144.8109  162.4703 C.ar    1  UNL1        0.0561
     11 C         138.2241  144.8542  162.9020 C.ar    1  UNL1        0.0047
     12 C         137.7385  143.9366  163.9846 C.ar    1  UNL1        0.0033
     13 C         138.6886  142.9758  164.6356 C.ar    1  UNL1        0.0369
     14 C         140.1245  142.9325  164.2039 C.ar    1  UNL1        0.1385
     15 C         140.6102  143.8500  163.1213 C.ar    1  UNL1        0.0414
     16 N         141.4667  145.4731  160.7246 N.am    1  UNL1       -0.3253
     17 C         140.1457  145.7285  161.3877 C.2     1  UNL1        0.2428
     18 O         139.3102  146.9016  160.9680 O.2     1  UNL1       -0.2704
     19 H         141.7855  146.0754  160.0140 H       1  UNL1        0.1453
     20 H         142.0150  144.7032  161.0000 H       1  UNL1        0.1453
     21 C         141.5730  140.9460  164.0937 C.3     1  UNL1        0.1587
     22 C         141.7106  140.9496  165.5874 C.2     1  UNL1        0.2425
     23 O         142.5373  142.0040  166.2618 O.2     1  UNL1       -0.2733
     24 N         141.0214  139.8990  166.4065 N.am    1  UNL1       -0.2828
     25 H         140.4788  139.2070  165.9638 H       1  UNL1        0.1549
     26 C         141.1589  139.9026  167.9002 C.ar    1  UNL1        0.0503
     27 C         140.0010  140.3178  168.7588 C.ar    1  UNL1        0.0147
     28 C         140.1384  140.3214  170.2526 C.ar    1  UNL1        0.0013
     29 C         141.4336  139.9099  170.8876 C.ar    1  UNL1        0.0001
     30 C         142.5913  139.4947  170.0290 C.ar    1  UNL1        0.0013
     31 C         142.4540  139.4911  168.5353 C.ar    1  UNL1        0.0147
@<TRIPOS>BOND
     1    16    17   am
     2    17    18    2
     3    17    10    1
     4    10    11   ar
     5    11    12   ar
     6    12    13   ar
     7    13    14   ar
     8    14     9    1
     9     1     9    1
    10     1     2    1
    11     3     2    1
    12     3     4    1
    13     4     5    1
    14     6     5    1
    15     6     7    1
    16     6     8    1
    17     8    21    1
    18    21    22    1
    19    22    23    2
    20    22    24   am
    21    24    26    1
    22    26    27   ar
    23    27    28   ar
    24    28    29   ar
    25    29    30   ar
    26    30    31   ar
    27    14    15   ar
    28    15    10   ar
    29     7     1    1
    30    31    26   ar
    31     8     3    1
    32    16    19    1
    33    16    20    1
    34    24    25    1
