@<TRIPOS>MOLECULE
*****
 36 40 0 0 0
SMALL
GASTEIGER

@<TRIPOS>ATOM
      1 C         139.8456  142.4866  165.3499 C.ar    1  UNL1        0.0659
      2 C         139.0940  143.7826  165.4238 C.ar    1  UNL1        0.0159
      3 C         139.1577  144.7526  164.2814 C.ar    1  UNL1        0.0014
      4 C         139.9730  144.4267  163.0653 C.ar    1  UNL1        0.0032
      5 C         139.9011  145.5255  162.0467 C.ar    1  UNL1        0.0016
      6 C         140.5631  145.5997  160.7027 C.ar    1  UNL1        0.0192
      7 C         141.4604  144.5934  160.0454 C.ar    1  UNL1        0.0844
      8 N         141.9103  145.0611  158.6930 N.ar    1  UNL1       -0.2437
      9 C         142.8172  144.1998  157.8650 C.ar    1  UNL1        0.0989
     10 C         143.2742  142.8708  158.3892 C.ar    1  UNL1        0.0223
     11 C         142.8243  142.4030  159.7415 C.ar    1  UNL1        0.0063
     12 C         141.9174  143.2644  160.5697 C.ar    1  UNL1        0.0566
     13 C         141.5899  142.6134  161.8808 C.ar    1  UNL1        0.1970
     14 O         142.2098  141.2671  162.1118 O.2     1  UNL1       -0.2865
     15 C         140.7246  143.1307  162.9914 C.ar    1  UNL1        0.0403
     16 C         140.6609  142.1607  164.1337 C.ar    1  UNL1        0.0191
     17 C         144.1811  142.0093  157.5611 C.ar    1  UNL1        0.0411
     18 C         144.0505  140.5285  157.3614 C.ar    1  UNL1        0.1217
     19 N         145.1664  140.0816  156.4643 N.ar    1  UNL1       -0.1676
     20 N         145.9868  141.2862  156.1095 N.ar    1  UNL1       -0.2473
     21 C         147.2026  141.2976  155.2311 C.3     1  UNL1        0.1538
     22 C         145.3778  142.4777  156.7874 C.ar    1  UNL1        0.0967
     23 N         139.7820  141.5165  166.4923 N.pl3   1  UNL1       -0.2052
     24 H         139.9918  141.8174  167.4059 H       1  UNL1        0.1748
     25 S         139.3986  140.0880  166.2426 S.O2    1  UNL1        0.1134
     26 O         140.6591  139.6321  166.9158 O.2     1  UNL1       -0.1379
     27 O         138.1381  140.5439  165.5695 O.2     1  UNL1       -0.1379
     28 C         137.7954  138.0845  166.6497 C.3     1  UNL1        0.1168
     29 N         139.0153  138.6594  165.9930 N.3     1  UNL1       -0.1352
     30 C         139.8519  137.8058  165.0866 C.3     1  UNL1        0.1442
     31 C         139.7180  137.9370  163.5984 C.ar    1  UNL1        0.0960
     32 C         140.9093  137.7108  162.7154 C.ar    1  UNL1        0.1150
     33 N         140.7754  137.8420  161.2271 N.ar    1  UNL1       -0.2394
     34 C         139.4502  138.1993  160.6219 C.ar    1  UNL1        0.1195
     35 C         138.2590  138.4254  161.5049 C.ar    1  UNL1        0.1191
     36 N         138.3928  138.2943  162.9931 N.ar    1  UNL1       -0.2435
@<TRIPOS>BOND
     1    28    29    1
     2    29    30    1
     3    30    31    1
     4    31    32   ar
     5    32    33   ar
     6    33    34   ar
     7    34    35   ar
     8    35    36   ar
     9    29    25    1
    10    25    26    2
    11    25    27    2
    12    25    23    1
    13    23     1    1
    14     1     2   ar
    15     2     3   ar
    16     3     4   ar
    17     4     5   ar
    18     5     6   ar
    19     6     7   ar
    20     7     8   ar
    21     8     9   ar
    22     9    10   ar
    23    10    17    1
    24    17    18   ar
    25    18    19   ar
    26    19    20   ar
    27    20    21    1
    28    20    22   ar
    29    10    11   ar
    30    11    12   ar
    31    12    13   ar
    32    13    14    2
    33    13    15   ar
    34    15    16   ar
    35    36    31   ar
    36    16     1   ar
    37    15     4   ar
    38    12     7   ar
    39    22    17   ar
    40    23    24    1
@<TRIPOS>MOLECULE
*****
 36 40 0 0 0
SMALL
GASTEIGER

@<TRIPOS>ATOM
      1 C         140.4066  139.8686  160.3136 C.ar    1  UNL1        0.0659
      2 C         139.5748  138.6262  160.1937 C.ar    1  UNL1        0.0159
      3 C         138.9946  137.9906  161.4223 C.ar    1  UNL1        0.0014
      4 C         139.2462  138.5975  162.7707 C.ar    1  UNL1        0.0032
      5 C         138.5792  137.8099  163.8592 C.ar    1  UNL1        0.0016
      6 C         138.5794  138.0701  165.3365 C.ar    1  UNL1        0.0192
      7 C         139.2466  139.1823  166.0901 C.ar    1  UNL1        0.0844
      8 N         138.9952  139.0729  167.5649 N.ar    1  UNL1       -0.2437
      9 C         139.5757  140.0901  168.5020 C.ar    1  UNL1        0.0989
     10 C         140.4074  141.2167  167.9645 C.ar    1  UNL1        0.0223
     11 C         140.6588  141.3261  166.4898 C.ar    1  UNL1        0.0063
     12 C         140.0784  140.3089  165.5525 C.ar    1  UNL1        0.0566
     13 C         140.4484  140.6016  164.1286 C.ar    1  UNL1        0.1970
     14 O         141.3016  141.8165  163.9145 O.2     1  UNL1       -0.2865
     15 C         140.0781  139.8399  162.8907 C.ar    1  UNL1        0.0403
     16 C         140.6583  140.4754  161.6621 C.ar    1  UNL1        0.0191
     17 C         140.9880  142.2339  168.9017 C.ar    1  UNL1        0.0411
     18 C         140.2696  143.4233  169.4669 C.ar    1  UNL1        0.1217
     19 N         141.2264  144.1648  170.3527 N.ar    1  UNL1       -0.1676
     20 N         142.5361  143.4337  170.3351 N.ar    1  UNL1       -0.2473
     21 C         143.7756  143.8268  171.0829 C.3     1  UNL1        0.1538
     22 C         142.3887  142.2404  169.4383 C.ar    1  UNL1        0.0967
     23 N         140.9868  140.5042  159.0850 N.pl3   1  UNL1       -0.2052
     24 H         140.5782  140.3378  158.2049 H       1  UNL1        0.1748
     25 S         142.1897  141.3933  159.1974 S.O2    1  UNL1        0.1134
     26 O         141.3013  142.6010  159.1514 O.2     1  UNL1       -0.1379
     27 O         143.0781  140.1856  159.2433 O.2     1  UNL1       -0.1379
     28 C         143.6120  143.3773  158.3081 C.3     1  UNL1        0.1168
     29 N         143.3925  142.2825  159.3097 N.3     1  UNL1       -0.1352
     30 C         144.3758  142.0769  160.4237 C.3     1  UNL1        0.1442
     31 C         144.2091  142.8174  161.7174 C.ar    1  UNL1        0.0960
     32 C         144.8050  142.2667  162.9790 C.ar    1  UNL1        0.1150
     33 N         144.6383  143.0074  164.2727 N.ar    1  UNL1       -0.2394
     34 C         143.8757  144.2986  164.3049 C.ar    1  UNL1        0.1195
     35 C         143.2798  144.8493  163.0433 C.ar    1  UNL1        0.1191
     36 N         143.4465  144.1087  161.7495 N.ar    1  UNL1       -0.2435
@<TRIPOS>BOND
     1    28    29    1
     2    29    30    1
     3    30    31    1
     4    31    32   ar
     5    32    33   ar
     6    33    34   ar
     7    34    35   ar
     8    35    36   ar
     9    29    25    1
    10    25    26    2
    11    25    27    2
    12    25    23    1
    13    23     1    1
    14     1     2   ar
    15     2     3   ar
    16     3     4   ar
    17     4     5   ar
    18     5     6   ar
    19     6     7   ar
    20     7     8   ar
    21     8     9   ar
    22     9    10   ar
    23    10    17    1
    24    17    18   ar
    25    18    19   ar
    26    19    20   ar
    27    20    21    1
    28    20    22   ar
    29    10    11   ar
    30    11    12   ar
    31    12    13   ar
    32    13    14    2
    33    13    15   ar
    34    15    16   ar
    35    36    31   ar
    36    16     1   ar
    37    15     4   ar
    38    12     7   ar
    39    22    17   ar
    40    23    24    1
@<TRIPOS>MOLECULE
*****
 36 40 0 0 0
SMALL
GASTEIGER

@<TRIPOS>ATOM
      1 C         142.2735  144.0726  160.0120 C.ar    1  UNL1        0.0659
      2 C         142.9618  143.1509  159.0495 C.ar    1  UNL1        0.0159
      3 C         143.5003  141.8346  159.5263 C.ar    1  UNL1        0.0014
      4 C         143.3504  141.4400  160.9657 C.ar    1  UNL1        0.0032
      5 C         143.9551  140.0931  161.2305 C.ar    1  UNL1        0.0016
      6 C         144.0206  139.3351  162.5233 C.ar    1  UNL1        0.0192
      7 C         143.4978  139.7370  163.8705 C.ar    1  UNL1        0.0844
      8 N         143.7730  138.6831  164.9018 N.ar    1  UNL1       -0.2437
      9 C         143.3306  138.8882  166.3203 C.ar    1  UNL1        0.0989
     10 C         142.6130  140.1473  166.7075 C.ar    1  UNL1        0.0223
     11 C         142.3378  141.2011  165.6763 C.ar    1  UNL1        0.0063
     12 C         142.7802  140.9960  164.2577 C.ar    1  UNL1        0.0566
     13 C         142.4083  142.1642  163.3933 C.ar    1  UNL1        0.1970
     14 O         141.6872  143.2826  164.0856 O.2     1  UNL1       -0.2865
     15 C         142.6621  142.3617  161.9282 C.ar    1  UNL1        0.0403
     16 C         142.1236  143.6780  161.4514 C.ar    1  UNL1        0.0191
     17 C         142.1706  140.3524  168.1261 C.ar    1  UNL1        0.0411
     18 C         142.4075  139.4099  169.2687 C.ar    1  UNL1        0.1217
     19 N         141.7969  140.0112  170.4998 N.ar    1  UNL1       -0.1676
     20 N         141.1827  141.3253  170.1181 N.ar    1  UNL1       -0.2473
     21 C         140.4637  142.2638  171.0413 C.3     1  UNL1        0.1538
     22 C         141.4136  141.5362  168.6511 C.ar    1  UNL1        0.0967
     23 N         141.7349  145.3889  159.5352 N.pl3   1  UNL1       -0.2052
     24 H         141.6658  146.1475  160.1589 H       1  UNL1        0.1748
     25 S         141.3017  145.5495  158.1082 S.O2    1  UNL1        0.1134
     26 O         140.0511  144.7747  158.4006 O.2     1  UNL1       -0.1379
     27 O         142.5524  146.3242  157.8157 O.2     1  UNL1       -0.1379
     28 C         141.8273  145.4081  155.5677 C.3     1  UNL1        0.1168
     29 N         140.8685  145.7100  156.6810 N.3     1  UNL1       -0.1352
     30 C         139.4765  146.1723  156.3673 C.3     1  UNL1        0.1442
     31 C         139.2119  147.6232  156.0939 C.ar    1  UNL1        0.0960
     32 C         139.5657  148.2119  154.7604 C.ar    1  UNL1        0.1150
     33 N         139.3011  149.6629  154.4870 N.ar    1  UNL1       -0.2394
     34 C         138.6827  150.5252  155.5472 C.ar    1  UNL1        0.1195
     35 C         138.3289  149.9365  156.8807 C.ar    1  UNL1        0.1191
     36 N         138.5935  148.4856  157.1541 N.ar    1  UNL1       -0.2435
@<TRIPOS>BOND
     1    28    29    1
     2    29    30    1
     3    30    31    1
     4    31    32   ar
     5    32    33   ar
     6    33    34   ar
     7    34    35   ar
     8    35    36   ar
     9    29    25    1
    10    25    26    2
    11    25    27    2
    12    25    23    1
    13    23     1    1
    14     1     2   ar
    15     2     3   ar
    16     3     4   ar
    17     4     5   ar
    18     5     6   ar
    19     6     7   ar
    20     7     8   ar
    21     8     9   ar
    22     9    10   ar
    23    10    17    1
    24    17    18   ar
    25    18    19   ar
    26    19    20   ar
    27    20    21    1
    28    20    22   ar
    29    10    11   ar
    30    11    12   ar
    31    12    13   ar
    32    13    14    2
    33    13    15   ar
    34    15    16   ar
    35    36    31   ar
    36    16     1   ar
    37    15     4   ar
    38    12     7   ar
    39    22    17   ar
    40    23    24    1
@<TRIPOS>MOLECULE
*****
 36 40 0 0 0
SMALL
GASTEIGER

@<TRIPOS>ATOM
      1 C         138.7147  142.4697  161.0280 C.ar    1  UNL1        0.0659
      2 C         137.8453  141.2602  160.8514 C.ar    1  UNL1        0.0159
      3 C         137.6946  140.2749  161.9723 C.ar    1  UNL1        0.0014
      4 C         138.4132  140.4991  163.2697 C.ar    1  UNL1        0.0032
      5 C         138.1275  139.4014  164.2512 C.ar    1  UNL1        0.0016
      6 C         138.6406  139.2421  165.6517 C.ar    1  UNL1        0.0192
      7 C         139.5662  140.1412  166.4165 C.ar    1  UNL1        0.0844
      8 N         139.8282  139.6126  167.7957 N.ar    1  UNL1       -0.2437
      9 C         140.7312  140.3644  168.7280 C.ar    1  UNL1        0.0989
     10 C         141.3722  141.6448  168.2813 C.ar    1  UNL1        0.0223
     11 C         141.1102  142.1734  166.9022 C.ar    1  UNL1        0.0063
     12 C         140.2072  141.4216  165.9698 C.ar    1  UNL1        0.0566
     13 C         140.0810  142.1192  164.6478 C.ar    1  UNL1        0.1970
     14 O         140.8556  143.3962  164.5093 O.2     1  UNL1       -0.2865
     15 C         139.2826  141.7086  163.4462 C.ar    1  UNL1        0.0403
     16 C         139.4333  142.6939  162.3254 C.ar    1  UNL1        0.0191
     17 C         142.2753  142.3967  169.2136 C.ar    1  UNL1        0.0411
     18 C         141.8374  143.3200  170.3117 C.ar    1  UNL1        0.1217
     19 N         143.0662  143.8511  170.9882 N.ar    1  UNL1       -0.1676
     20 N         144.2636  143.2561  170.3084 N.ar    1  UNL1       -0.2473
     21 C         145.6980  143.5146  170.6629 C.3     1  UNL1        0.1538
     22 C         143.7747  142.3572  169.2116 C.ar    1  UNL1        0.0967
     23 N         138.8654  143.4551  159.9070 N.pl3   1  UNL1       -0.2052
     24 H         138.0675  143.8642  159.5006 H       1  UNL1        0.1748
     25 S         140.2319  143.8172  159.4055 S.O2    1  UNL1        0.1134
     26 O         140.0661  145.2032  159.9544 O.2     1  UNL1       -0.1379
     27 O         140.3977  142.4311  158.8566 O.2     1  UNL1       -0.1379
     28 C         141.8106  145.4712  158.1718 C.3     1  UNL1        0.1168
     29 N         141.5984  144.1794  158.9039 N.3     1  UNL1       -0.1352
     30 C         142.7527  143.2496  159.1344 C.3     1  UNL1        0.1442
     31 C         143.3743  143.1490  160.4958 C.ar    1  UNL1        0.0960
     32 C         144.1356  141.9161  160.8834 C.ar    1  UNL1        0.1150
     33 N         144.7572  141.8155  162.2449 N.ar    1  UNL1       -0.2394
     34 C         144.6175  142.9478  163.2187 C.ar    1  UNL1        0.1195
     35 C         143.8561  144.1807  162.8311 C.ar    1  UNL1        0.1191
     36 N         143.2345  144.2814  161.4697 N.ar    1  UNL1       -0.2435
@<TRIPOS>BOND
     1    28    29    1
     2    29    30    1
     3    30    31    1
     4    31    32   ar
     5    32    33   ar
     6    33    34   ar
     7    34    35   ar
     8    35    36   ar
     9    29    25    1
    10    25    26    2
    11    25    27    2
    12    25    23    1
    13    23     1    1
    14     1     2   ar
    15     2     3   ar
    16     3     4   ar
    17     4     5   ar
    18     5     6   ar
    19     6     7   ar
    20     7     8   ar
    21     8     9   ar
    22     9    10   ar
    23    10    17    1
    24    17    18   ar
    25    18    19   ar
    26    19    20   ar
    27    20    21    1
    28    20    22   ar
    29    10    11   ar
    30    11    12   ar
    31    12    13   ar
    32    13    14    2
    33    13    15   ar
    34    15    16   ar
    35    36    31   ar
    36    16     1   ar
    37    15     4   ar
    38    12     7   ar
    39    22    17   ar
    40    23    24    1
@<TRIPOS>MOLECULE
*****
 36 40 0 0 0
SMALL
GASTEIGER

@<TRIPOS>ATOM
      1 C         143.0222  142.2234  160.4839 C.ar    1  UNL1        0.0659
      2 C         142.4465  140.8740  160.1718 C.ar    1  UNL1        0.0159
      3 C         141.3622  140.7407  159.1440 C.ar    1  UNL1        0.0014
      4 C         140.8536  141.9568  158.4282 C.ar    1  UNL1        0.0032
      5 C         139.7757  141.6042  157.4466 C.ar    1  UNL1        0.0016
      6 C         139.0071  142.5140  156.5345 C.ar    1  UNL1        0.0192
      7 C         139.1269  144.0010  156.3789 C.ar    1  UNL1        0.0844
      8 N         138.1668  144.5236  155.3517 N.ar    1  UNL1       -0.2437
      9 C         138.1244  145.9907  155.0425 C.ar    1  UNL1        0.0989
     10 C         139.0422  146.9353  155.7605 C.ar    1  UNL1        0.0223
     11 C         140.0022  146.4128  156.7876 C.ar    1  UNL1        0.0063
     12 C         140.0446  144.9456  157.0969 C.ar    1  UNL1        0.0566
     13 C         141.0694  144.6364  158.1478 C.ar    1  UNL1        0.1970
     14 O         141.8353  145.8130  158.6760 O.2     1  UNL1       -0.2865
     15 C         141.4294  143.3063  158.7403 C.ar    1  UNL1        0.0403
     16 C         142.5137  143.4396  159.7681 C.ar    1  UNL1        0.0191
     17 C         138.9998  148.4026  155.4512 C.ar    1  UNL1        0.0411
     18 C         138.3578  149.4633  156.2953 C.ar    1  UNL1        0.1217
     19 N         138.5533  150.7829  155.6094 N.ar    1  UNL1       -0.1676
     20 N         139.3162  150.5377  154.3414 N.ar    1  UNL1       -0.2473
     21 C         139.7304  151.5804  153.3458 C.3     1  UNL1        0.1538
     22 C         139.5922  149.0665  154.2436 C.ar    1  UNL1        0.0967
     23 N         144.1066  142.3568  161.5118 N.pl3   1  UNL1       -0.2052
     24 H         144.9789  141.9244  161.3660 H       1  UNL1        0.1748
     25 S         143.8618  143.1490  162.7617 S.O2    1  UNL1        0.1134
     26 O         144.5978  144.3133  162.1680 O.2     1  UNL1       -0.1379
     27 O         143.1257  141.9847  163.3555 O.2     1  UNL1       -0.1379
     28 C         144.2758  143.5368  165.2972 C.3     1  UNL1        0.1168
     29 N         143.6170  143.9413  164.0117 N.3     1  UNL1       -0.1352
     30 C         142.7135  145.1381  163.9762 C.3     1  UNL1        0.1442
     31 C         141.2612  144.9717  163.6399 C.ar    1  UNL1        0.0960
     32 C         140.7368  145.4552  162.3204 C.ar    1  UNL1        0.1150
     33 N         139.2844  145.2887  161.9840 N.ar    1  UNL1       -0.2394
     34 C         138.3566  144.6388  162.9672 C.ar    1  UNL1        0.1195
     35 C         138.8810  144.1553  164.2868 C.ar    1  UNL1        0.1191
     36 N         140.3333  144.3218  164.6231 N.ar    1  UNL1       -0.2435
@<TRIPOS>BOND
     1    28    29    1
     2    29    30    1
     3    30    31    1
     4    31    32   ar
     5    32    33   ar
     6    33    34   ar
     7    34    35   ar
     8    35    36   ar
     9    29    25    1
    10    25    26    2
    11    25    27    2
    12    25    23    1
    13    23     1    1
    14     1     2   ar
    15     2     3   ar
    16     3     4   ar
    17     4     5   ar
    18     5     6   ar
    19     6     7   ar
    20     7     8   ar
    21     8     9   ar
    22     9    10   ar
    23    10    17    1
    24    17    18   ar
    25    18    19   ar
    26    19    20   ar
    27    20    21    1
    28    20    22   ar
    29    10    11   ar
    30    11    12   ar
    31    12    13   ar
    32    13    14    2
    33    13    15   ar
    34    15    16   ar
    35    36    31   ar
    36    16     1   ar
    37    15     4   ar
    38    12     7   ar
    39    22    17   ar
    40    23    24    1
@<TRIPOS>MOLECULE
*****
 36 40 0 0 0
SMALL
GASTEIGER

@<TRIPOS>ATOM
      1 C         141.0457  140.0274  160.0393 C.ar    1  UNL1        0.0659
      2 C         140.1636  138.8356  159.8124 C.ar    1  UNL1        0.0159
      3 C         139.4429  138.2054  160.9670 C.ar    1  UNL1        0.0014
      4 C         139.6043  138.7668  162.3486 C.ar    1  UNL1        0.0032
      5 C         138.8019  137.9927  163.3519 C.ar    1  UNL1        0.0016
      6 C         138.6833  138.2191  164.8301 C.ar    1  UNL1        0.0192
      7 C         139.3381  139.2755  165.6698 C.ar    1  UNL1        0.0844
      8 N         138.9501  139.1468  167.1131 N.ar    1  UNL1       -0.2437
      9 C         139.4971  140.1091  168.1253 C.ar    1  UNL1        0.0989
     10 C         140.4320  141.2001  167.6944 C.ar    1  UNL1        0.0223
     11 C         140.8199  141.3288  166.2512 C.ar    1  UNL1        0.0063
     12 C         140.2730  140.3665  165.2389 C.ar    1  UNL1        0.0566
     13 C         140.7841  140.6705  163.8617 C.ar    1  UNL1        0.1970
     14 O         141.7159  141.8412  163.7572 O.2     1  UNL1       -0.2865
     15 C         140.4865  139.9585  162.5755 C.ar    1  UNL1        0.0403
     16 C         141.2072  140.5888  161.4208 C.ar    1  UNL1        0.0191
     17 C         140.9790  142.1624  168.7068 C.ar    1  UNL1        0.0411
     18 C         140.2173  143.2706  169.3715 C.ar    1  UNL1        0.1217
     19 N         141.1514  143.9785  170.3076 N.ar    1  UNL1       -0.1676
     20 N         142.4904  143.3079  170.2215 N.ar    1  UNL1       -0.2473
     21 C         143.7200  143.6922  170.9898 C.3     1  UNL1        0.1538
     22 C         142.3839  142.1855  169.2321 C.ar    1  UNL1        0.0967
     23 N         141.7665  140.6577  158.8846 N.pl3   1  UNL1       -0.2052
     24 H         142.3728  140.1171  158.3284 H       1  UNL1        0.1748
     25 S         141.5634  142.1118  158.5773 S.O2    1  UNL1        0.1134
     26 O         142.8992  142.4263  159.1826 O.2     1  UNL1       -0.1379
     27 O         140.2275  141.7972  157.9719 O.2     1  UNL1       -0.1379
     28 C         142.3591  144.3006  157.4258 C.3     1  UNL1        0.1168
     29 N         141.3603  143.5659  158.2699 N.3     1  UNL1       -0.1352
     30 C         140.1585  144.2852  158.8068 C.3     1  UNL1        0.1442
     31 C         139.9289  144.3607  160.2871 C.ar    1  UNL1        0.0960
     32 C         140.7488  145.2950  161.1266 C.ar    1  UNL1        0.1150
     33 N         140.5192  145.3704  162.6070 N.ar    1  UNL1       -0.2394
     34 C         139.4697  144.5116  163.2479 C.ar    1  UNL1        0.1195
     35 C         138.6497  143.5773  162.4085 C.ar    1  UNL1        0.1191
     36 N         138.8793  143.5018  160.9281 N.ar    1  UNL1       -0.2435
@<TRIPOS>BOND
     1    28    29    1
     2    29    30    1
     3    30    31    1
     4    31    32   ar
     5    32    33   ar
     6    33    34   ar
     7    34    35   ar
     8    35    36   ar
     9    29    25    1
    10    25    26    2
    11    25    27    2
    12    25    23    1
    13    23     1    1
    14     1     2   ar
    15     2     3   ar
    16     3     4   ar
    17     4     5   ar
    18     5     6   ar
    19     6     7   ar
    20     7     8   ar
    21     8     9   ar
    22     9    10   ar
    23    10    17    1
    24    17    18   ar
    25    18    19   ar
    26    19    20   ar
    27    20    21    1
    28    20    22   ar
    29    10    11   ar
    30    11    12   ar
    31    12    13   ar
    32    13    14    2
    33    13    15   ar
    34    15    16   ar
    35    36    31   ar
    36    16     1   ar
    37    15     4   ar
    38    12     7   ar
    39    22    17   ar
    40    23    24    1
@<TRIPOS>MOLECULE
*****
 36 40 0 0 0
SMALL
GASTEIGER

@<TRIPOS>ATOM
      1 C         143.0014  143.8195  158.1744 C.ar    1  UNL1        0.0659
      2 C         142.2003  144.9983  157.7070 C.ar    1  UNL1        0.0159
      3 C         141.2177  145.6520  158.6328 C.ar    1  UNL1        0.0014
      4 C         141.0362  145.1267  160.0260 C.ar    1  UNL1        0.0032
      5 C         140.0112  145.9197  160.7814 C.ar    1  UNL1        0.0016
      6 C         139.5341  145.7297  162.1908 C.ar    1  UNL1        0.0192
      7 C         139.9643  144.6998  163.1929 C.ar    1  UNL1        0.0844
      8 N         139.2341  144.8618  164.4931 N.ar    1  UNL1       -0.2437
      9 C         139.5174  143.9296  165.6336 C.ar    1  UNL1        0.0989
     10 C         140.5307  142.8353  165.4738 C.ar    1  UNL1        0.0223
     11 C         141.2609  142.6732  164.1736 C.ar    1  UNL1        0.0063
     12 C         140.9776  143.6055  163.0331 C.ar    1  UNL1        0.0566
     13 C         141.8112  143.2708  161.8317 C.ar    1  UNL1        0.1970
     14 O         142.7417  142.1050  161.9895 O.2     1  UNL1       -0.2865
     15 C         141.8372  143.9479  160.4935 C.ar    1  UNL1        0.0403
     16 C         142.8198  143.2942  159.5677 C.ar    1  UNL1        0.0191
     17 C         140.8140  141.9029  166.6143 C.ar    1  UNL1        0.0411
     18 C         139.9654  140.7393  167.0335 C.ar    1  UNL1        0.1217
     19 N         140.6226  140.0878  168.2140 N.ar    1  UNL1       -0.1676
     20 N         141.8774  140.8488  168.5244 N.ar    1  UNL1       -0.2473
     21 C         142.8442  140.5419  169.6295 C.3     1  UNL1        0.1538
     22 C         141.9957  141.9706  167.5357 C.ar    1  UNL1        0.0967
     23 N         143.9841  143.1658  157.2486 N.pl3   1  UNL1       -0.2052
     24 H         144.7034  143.6984  156.8384 H       1  UNL1        0.1748
     25 S         143.8708  141.7007  156.9476 S.O2    1  UNL1        0.1134
     26 O         145.2293  141.4736  157.5416 O.2     1  UNL1       -0.1379
     27 O         142.5123  141.9277  156.3537 O.2     1  UNL1       -0.1379
     28 C         144.7472  139.5795  155.7300 C.3     1  UNL1        0.1168
     29 N         143.7576  140.2355  156.6467 N.3     1  UNL1       -0.1352
     30 C         142.6548  139.4264  157.2625 C.3     1  UNL1        0.1442
     31 C         142.6699  139.1353  158.7339 C.ar    1  UNL1        0.0960
     32 C         141.3807  138.9134  159.4678 C.ar    1  UNL1        0.1150
     33 N         141.3959  138.6223  160.9393 N.ar    1  UNL1       -0.2394
     34 C         142.7002  138.5530  161.6767 C.ar    1  UNL1        0.1195
     35 C         143.9895  138.7749  160.9427 C.ar    1  UNL1        0.1191
     36 N         143.9743  139.0660  159.4714 N.ar    1  UNL1       -0.2435
@<TRIPOS>BOND
     1    28    29    1
     2    29    30    1
     3    30    31    1
     4    31    32   ar
     5    32    33   ar
     6    33    34   ar
     7    34    35   ar
     8    35    36   ar
     9    29    25    1
    10    25    26    2
    11    25    27    2
    12    25    23    1
    13    23     1    1
    14     1     2   ar
    15     2     3   ar
    16     3     4   ar
    17     4     5   ar
    18     5     6   ar
    19     6     7   ar
    20     7     8   ar
    21     8     9   ar
    22     9    10   ar
    23    10    17    1
    24    17    18   ar
    25    18    19   ar
    26    19    20   ar
    27    20    21    1
    28    20    22   ar
    29    10    11   ar
    30    11    12   ar
    31    12    13   ar
    32    13    14    2
    33    13    15   ar
    34    15    16   ar
    35    36    31   ar
    36    16     1   ar
    37    15     4   ar
    38    12     7   ar
    39    22    17   ar
    40    23    24    1
@<TRIPOS>MOLECULE
*****
 36 40 0 0 0
SMALL
GASTEIGER

@<TRIPOS>ATOM
      1 C         140.8034  140.5512  164.6993 C.ar    1  UNL1        0.0659
      2 C         142.1643  140.1245  165.1637 C.ar    1  UNL1        0.0159
      3 C         143.0801  139.3914  164.2289 C.ar    1  UNL1        0.0014
      4 C         142.6349  139.0850  162.8297 C.ar    1  UNL1        0.0032
      5 C         143.6959  138.3497  162.0657 C.ar    1  UNL1        0.0016
      6 C         143.6581  137.8595  160.6485 C.ar    1  UNL1        0.0192
      7 C         142.5498  137.9835  159.6454 C.ar    1  UNL1        0.0844
      8 N         142.9225  137.3531  158.3363 N.ar    1  UNL1       -0.2437
      9 C         141.9511  137.3675  157.1935 C.ar    1  UNL1        0.0989
     10 C         140.6070  138.0124  157.3597 C.ar    1  UNL1        0.0223
     11 C         140.2343  138.6428  158.6687 C.ar    1  UNL1        0.0063
     12 C         141.2057  138.6283  159.8116 C.ar    1  UNL1        0.0566
     13 C         140.6379  139.3085  161.0221 C.ar    1  UNL1        0.1970
     14 O         139.2506  139.8580  160.8691 O.2     1  UNL1       -0.2865
     15 C         141.2740  139.5117  162.3652 C.ar    1  UNL1        0.0403
     16 C         140.3583  140.2448  163.3000 C.ar    1  UNL1        0.0191
     17 C         139.6355  138.0268  156.2168 C.ar    1  UNL1        0.0411
     18 C         139.2810  136.8580  155.3461 C.ar    1  UNL1        0.1217
     19 N         138.2744  137.3215  154.3353 N.ar    1  UNL1       -0.1676
     20 N         138.0069  138.7768  154.5810 N.ar    1  UNL1       -0.2473
     21 C         137.0637  139.6441  153.8010 C.3     1  UNL1        0.1538
     22 C         138.8481  139.2128  155.7439 C.ar    1  UNL1        0.0967
     23 N         139.8875  141.2843  165.6341 N.pl3   1  UNL1       -0.2052
     24 H         139.7142  140.9266  166.5347 H       1  UNL1        0.1748
     25 S         139.2358  142.5625  165.1966 S.O2    1  UNL1        0.1134
     26 O         140.5164  143.3018  165.4489 O.2     1  UNL1       -0.1379
     27 O         137.9553  141.8233  164.9443 O.2     1  UNL1       -0.1379
     28 C         138.5607  145.0243  165.6804 C.3     1  UNL1        0.1168
     29 N         138.5841  143.8408  164.7591 N.3     1  UNL1       -0.1352
     30 C         137.9559  143.9356  163.4003 C.3     1  UNL1        0.1442
     31 C         138.8171  144.1320  162.1880 C.ar    1  UNL1        0.0960
     32 C         139.8165  145.2500  162.1510 C.ar    1  UNL1        0.1150
     33 N         140.6777  145.4463  160.9386 N.ar    1  UNL1       -0.2394
     34 C         140.5395  144.5246  159.7632 C.ar    1  UNL1        0.1195
     35 C         139.5401  143.4066  159.8002 C.ar    1  UNL1        0.1191
     36 N         138.6789  143.2103  161.0126 N.ar    1  UNL1       -0.2435
@<TRIPOS>BOND
     1    28    29    1
     2    29    30    1
     3    30    31    1
     4    31    32   ar
     5    32    33   ar
     6    33    34   ar
     7    34    35   ar
     8    35    36   ar
     9    29    25    1
    10    25    26    2
    11    25    27    2
    12    25    23    1
    13    23     1    1
    14     1     2   ar
    15     2     3   ar
    16     3     4   ar
    17     4     5   ar
    18     5     6   ar
    19     6     7   ar
    20     7     8   ar
    21     8     9   ar
    22     9    10   ar
    23    10    17    1
    24    17    18   ar
    25    18    19   ar
    26    19    20   ar
    27    20    21    1
    28    20    22   ar
    29    10    11   ar
    30    11    12   ar
    31    12    13   ar
    32    13    14    2
    33    13    15   ar
    34    15    16   ar
    35    36    31   ar
    36    16     1   ar
    37    15     4   ar
    38    12     7   ar
    39    22    17   ar
    40    23    24    1
@<TRIPOS>MOLECULE
*****
 36 40 0 0 0
SMALL
GASTEIGER

@<TRIPOS>ATOM
      1 C         142.3342  144.0251  160.2575 C.ar    1  UNL1        0.0659
      2 C         142.9872  143.0962  159.2773 C.ar    1  UNL1        0.0159
      3 C         143.4974  141.7617  159.7341 C.ar    1  UNL1        0.0014
      4 C         143.3545  141.3560  161.1712 C.ar    1  UNL1        0.0032
      5 C         143.9275  139.9914  161.4148 C.ar    1  UNL1        0.0016
      6 C         143.9890  139.2184  162.6990 C.ar    1  UNL1        0.0192
      7 C         143.4927  139.6194  164.0565 C.ar    1  UNL1        0.0844
      8 N         143.7530  138.5480  165.0736 N.ar    1  UNL1       -0.2437
      9 C         143.3330  138.7495  166.4994 C.ar    1  UNL1        0.0989
     10 C         142.6527  140.0223  166.9081 C.ar    1  UNL1        0.0223
     11 C         142.3924  141.0937  165.8911 C.ar    1  UNL1        0.0063
     12 C         142.8124  140.8922  164.4652 C.ar    1  UNL1        0.0566
     13 C         142.4603  142.0785  163.6173 C.ar    1  UNL1        0.1970
     14 O         141.7765  143.2076  164.3297 O.2     1  UNL1       -0.2865
     15 C         142.7016  142.2849  162.1514 C.ar    1  UNL1        0.0403
     16 C         142.1914  143.6194  161.6946 C.ar    1  UNL1        0.0191
     17 C         142.2326  140.2239  168.3340 C.ar    1  UNL1        0.0411
     18 C         142.4656  139.2670  169.4654 C.ar    1  UNL1        0.1217
     19 N         141.8828  139.8695  170.7093 N.ar    1  UNL1       -0.1676
     20 N         141.2896  141.1986  170.3468 N.ar    1  UNL1       -0.2473
     21 C         140.6011  142.1430  171.2871 C.3     1  UNL1        0.1538
     22 C         141.5058  141.4177  168.8787 C.ar    1  UNL1        0.0967
     23 N         141.8241  145.3597  159.8008 N.pl3   1  UNL1       -0.2052
     24 H         141.9853  146.1620  160.3481 H       1  UNL1        0.1748
     25 S         141.0682  145.4719  158.5100 S.O2    1  UNL1        0.1134
     26 O         142.2660  146.1019  157.8633 O.2     1  UNL1       -0.1379
     27 O         139.8703  144.8420  159.1568 O.2     1  UNL1       -0.1379
     28 C         139.6387  146.8738  156.8543 C.3     1  UNL1        0.1168
     29 N         140.3123  145.5842  157.2192 N.3     1  UNL1       -0.1352
     30 C         140.2299  144.4069  156.2935 C.3     1  UNL1        0.1442
     31 C         138.8928  143.8410  155.9169 C.ar    1  UNL1        0.0960
     32 C         138.1879  144.3358  154.6888 C.ar    1  UNL1        0.1150
     33 N         136.8507  143.7699  154.3122 N.ar    1  UNL1       -0.2394
     34 C         136.2185  142.7092  155.1638 C.ar    1  UNL1        0.1195
     35 C         136.9234  142.2145  156.3920 C.ar    1  UNL1        0.1191
     36 N         138.2605  142.7803  156.7685 N.ar    1  UNL1       -0.2435
@<TRIPOS>BOND
     1    28    29    1
     2    29    30    1
     3    30    31    1
     4    31    32   ar
     5    32    33   ar
     6    33    34   ar
     7    34    35   ar
     8    35    36   ar
     9    29    25    1
    10    25    26    2
    11    25    27    2
    12    25    23    1
    13    23     1    1
    14     1     2   ar
    15     2     3   ar
    16     3     4   ar
    17     4     5   ar
    18     5     6   ar
    19     6     7   ar
    20     7     8   ar
    21     8     9   ar
    22     9    10   ar
    23    10    17    1
    24    17    18   ar
    25    18    19   ar
    26    19    20   ar
    27    20    21    1
    28    20    22   ar
    29    10    11   ar
    30    11    12   ar
    31    12    13   ar
    32    13    14    2
    33    13    15   ar
    34    15    16   ar
    35    36    31   ar
    36    16     1   ar
    37    15     4   ar
    38    12     7   ar
    39    22    17   ar
    40    23    24    1
