@<TRIPOS>MOLECULE
*****
 30 32 0 0 0
SMALL
GASTEIGER

@<TRIPOS>ATOM
      1 C         142.5239  141.3695  169.7574 C.3     1  UNL1        0.0722
      2 N         142.9695  139.7851  165.5692 N.pl3   1  UNL1       -0.3023
      3 C         142.8794  141.2636  165.8061 C.3     1  UNL1        0.1082
      4 C         142.7309  141.7917  167.2022 C.3     1  UNL1        0.0938
      5 N         142.6724  140.8414  168.3613 N.3     1  UNL1       -0.2698
      6 C         142.7625  139.3630  168.1244 C.3     1  UNL1        0.0938
      7 C         142.9110  138.8349  166.7282 C.3     1  UNL1        0.1082
      8 C         144.3451  139.5832  163.3744 C.ar    1  UNL1        0.1519
      9 C         144.4936  139.0551  161.9783 C.ar    1  UNL1        0.0382
     10 C         143.4151  138.2008  161.3809 C.ar    1  UNL1        0.0032
     11 C         142.1880  137.8746  162.1796 C.ar    1  UNL1        0.0015
     12 C         142.0395  138.4027  163.5756 C.ar    1  UNL1        0.0176
     13 C         143.1181  139.2570  164.1730 C.ar    1  UNL1        0.0824
     14 C         145.7006  141.7995  163.4074 C.3     1  UNL1        0.2525
     15 O         145.4237  140.4376  163.9718 O.3     1  UNL1       -0.4702
     16 C         141.7403  140.5929  170.7737 C.3     1  UNL1        0.0188
     17 C         140.2445  140.5314  170.6804 C.3     1  UNL1        0.0203
     18 C         139.5677  140.7119  169.3540 C.3     1  UNL1        0.0915
     19 N         138.6791  139.6316  168.8123 N.3     1  UNL1       -0.1794
     20 H         137.7305  139.8500  169.1172 H       1  UNL1        0.1488
     21 S         138.6130  139.3858  167.3340 S.O2    1  UNL1        0.0602
     22 O         139.5786  140.5104  167.1039 O.2     1  UNL1       -0.1530
     23 O         137.6473  138.2613  167.5641 O.2     1  UNL1       -0.1530
     24 C         138.5469  139.1401  165.8558 C.ar    1  UNL1        0.1219
     25 C         138.2518  140.2743  164.9194 C.ar    1  UNL1        0.0196
     26 C         138.1857  140.0285  163.4412 C.ar    1  UNL1       -0.0029
     27 C         138.4147  138.6486  162.8993 C.ar    1  UNL1       -0.0218
     28 C         138.3485  138.4029  161.4210 C.3     1  UNL1        0.0310
     29 C         138.7097  137.5146  163.8356 C.ar    1  UNL1       -0.0029
     30 C         138.7758  137.7603  165.3139 C.ar    1  UNL1        0.0196
@<TRIPOS>BOND
     1    14    15    1
     2    15     8    1
     3     8     9   ar
     4     9    10   ar
     5    10    11   ar
     6    11    12   ar
     7    12    13   ar
     8    13     2    1
     9     2     3    1
    10     3     4    1
    11     4     5    1
    12     5     1    1
    13     1    16    1
    14    16    17    1
    15    17    18    1
    16    18    19    1
    17    19    21    1
    18    21    22    2
    19    21    23    2
    20    21    24    1
    21    24    25   ar
    22    25    26   ar
    23    26    27   ar
    24    27    28    1
    25    27    29   ar
    26    29    30   ar
    27     5     6    1
    28     6     7    1
    29    13     8   ar
    30     7     2    1
    31    30    24   ar
    32    19    20    1
@<TRIPOS>MOLECULE
*****
 30 32 0 0 0
SMALL
GASTEIGER

@<TRIPOS>ATOM
      1 C         140.0936  142.8793  157.8360 C.3     1  UNL1        0.0722
      2 N         139.3395  140.7343  161.7193 N.pl3   1  UNL1       -0.3023
      3 C         140.7459  140.9886  161.2638 C.3     1  UNL1        0.1082
      4 C         140.9972  141.7036  159.9694 C.3     1  UNL1        0.0938
      5 N         139.8422  142.1643  159.1304 N.3     1  UNL1       -0.2698
      6 C         138.4359  141.9099  159.5859 C.3     1  UNL1        0.0938
      7 C         138.1846  141.1949  160.8804 C.3     1  UNL1        0.1082
      8 C         139.4908  138.5825  163.1674 C.ar    1  UNL1        0.1519
      9 C         139.2395  137.8675  164.4619 C.ar    1  UNL1        0.0382
     10 C         138.5855  138.5893  165.6026 C.ar    1  UNL1        0.0032
     11 C         138.1829  140.0261  165.4490 C.ar    1  UNL1        0.0015
     12 C         138.4343  140.7410  164.1546 C.ar    1  UNL1        0.0176
     13 C         139.0882  140.0192  163.0138 C.ar    1  UNL1        0.0824
     14 C         141.6300  137.6511  162.0245 C.3     1  UNL1        0.2525
     15 O         140.1448  137.8607  162.0266 O.3     1  UNL1       -0.4702
     16 C         141.0939  143.9955  157.7777 C.3     1  UNL1        0.0188
     17 C         140.7611  145.3326  158.3705 C.3     1  UNL1        0.0203
     18 C         140.7970  145.5235  159.8578 C.3     1  UNL1        0.0915
     19 N         139.6011  145.1647  160.6891 N.3     1  UNL1       -0.1794
     20 H         139.0943  144.4412  160.1791 H       1  UNL1        0.1488
     21 S         139.7853  144.6592  162.0893 S.O2    1  UNL1        0.0602
     22 O         138.2968  144.6100  162.2675 O.2     1  UNL1       -0.1530
     23 O         141.2739  144.7084  161.9112 O.2     1  UNL1       -0.1530
     24 C         139.9696  144.1536  163.4895 C.ar    1  UNL1        0.1219
     25 C         138.9528  144.4775  164.5437 C.ar    1  UNL1        0.0196
     26 C         139.1371  143.9720  165.9439 C.ar    1  UNL1       -0.0029
     27 C         140.3382  143.1426  166.2898 C.ar    1  UNL1       -0.0218
     28 C         140.5224  142.6371  167.6900 C.3     1  UNL1        0.0310
     29 C         141.3548  142.8187  165.2356 C.ar    1  UNL1       -0.0029
     30 C         141.1706  143.3243  163.8355 C.ar    1  UNL1        0.0196
@<TRIPOS>BOND
     1    14    15    1
     2    15     8    1
     3     8     9   ar
     4     9    10   ar
     5    10    11   ar
     6    11    12   ar
     7    12    13   ar
     8    13     2    1
     9     2     3    1
    10     3     4    1
    11     4     5    1
    12     5     1    1
    13     1    16    1
    14    16    17    1
    15    17    18    1
    16    18    19    1
    17    19    21    1
    18    21    22    2
    19    21    23    2
    20    21    24    1
    21    24    25   ar
    22    25    26   ar
    23    26    27   ar
    24    27    28    1
    25    27    29   ar
    26    29    30   ar
    27     5     6    1
    28     6     7    1
    29    13     8   ar
    30     7     2    1
    31    30    24   ar
    32    19    20    1
@<TRIPOS>MOLECULE
*****
 30 32 0 0 0
SMALL
GASTEIGER

@<TRIPOS>ATOM
      1 C         141.1617  142.8076  158.2603 C.3     1  UNL1        0.0722
      2 N         142.1524  140.5835  162.0447 N.pl3   1  UNL1       -0.3023
      3 C         143.2450  140.9616  161.0890 C.3     1  UNL1        0.1082
      4 C         142.9148  141.7029  159.8276 C.3     1  UNL1        0.0938
      5 N         141.4919  142.0663  159.5218 N.3     1  UNL1       -0.2698
      6 C         140.3993  141.6882  160.4774 C.3     1  UNL1        0.0938
      7 C         140.7296  140.9468  161.7389 C.3     1  UNL1        0.1082
      8 C         141.4250  139.0384  164.0026 C.ar    1  UNL1        0.1519
      9 C         141.7553  138.2970  165.2640 C.ar    1  UNL1        0.0382
     10 C         143.1434  138.3594  165.8291 C.ar    1  UNL1        0.0032
     11 C         144.2012  139.1632  165.1327 C.ar    1  UNL1        0.0015
     12 C         143.8709  139.9045  163.8712 C.ar    1  UNL1        0.0176
     13 C         142.4827  139.8421  163.3062 C.ar    1  UNL1        0.0824
     14 C         139.4188  137.6487  163.1115 C.3     1  UNL1        0.2525
     15 O         140.0368  138.9760  163.4376 O.3     1  UNL1       -0.4702
     16 C         141.3259  144.2974  158.2011 C.3     1  UNL1        0.0188
     17 C         140.4489  145.1824  159.0364 C.3     1  UNL1        0.0203
     18 C         140.7247  145.3437  160.5019 C.3     1  UNL1        0.0915
     19 N         142.1043  145.0976  161.0370 N.3     1  UNL1       -0.1794
     20 H         142.5652  146.0058  161.0919 H       1  UNL1        0.1488
     21 S         142.2842  144.4392  162.3728 S.O2    1  UNL1        0.0602
     22 O         140.8051  144.5163  162.6100 O.2     1  UNL1       -0.1530
     23 O         143.7633  144.3622  162.1355 O.2     1  UNL1       -0.1530
     24 C         142.4642  143.7809  163.7085 C.ar    1  UNL1        0.1219
     25 C         143.8305  143.6870  164.3204 C.ar    1  UNL1        0.0196
     26 C         144.0105  143.0287  165.6561 C.ar    1  UNL1       -0.0029
     27 C         142.8241  142.4642  166.3800 C.ar    1  UNL1       -0.0218
     28 C         143.0040  141.8059  167.7157 C.3     1  UNL1        0.0310
     29 C         141.4578  142.5581  165.7681 C.ar    1  UNL1       -0.0029
     30 C         141.2778  143.2165  164.4324 C.ar    1  UNL1        0.0196
@<TRIPOS>BOND
     1    14    15    1
     2    15     8    1
     3     8     9   ar
     4     9    10   ar
     5    10    11   ar
     6    11    12   ar
     7    12    13   ar
     8    13     2    1
     9     2     3    1
    10     3     4    1
    11     4     5    1
    12     5     1    1
    13     1    16    1
    14    16    17    1
    15    17    18    1
    16    18    19    1
    17    19    21    1
    18    21    22    2
    19    21    23    2
    20    21    24    1
    21    24    25   ar
    22    25    26   ar
    23    26    27   ar
    24    27    28    1
    25    27    29   ar
    26    29    30   ar
    27     5     6    1
    28     6     7    1
    29    13     8   ar
    30     7     2    1
    31    30    24   ar
    32    19    20    1
@<TRIPOS>MOLECULE
*****
 30 32 0 0 0
SMALL
GASTEIGER

@<TRIPOS>ATOM
      1 C         138.6297  142.0256  159.7432 C.3     1  UNL1        0.0722
      2 N         139.3223  141.4342  164.1501 N.pl3   1  UNL1       -0.3023
      3 C         140.1596  140.6898  163.1527 C.3     1  UNL1        0.1082
      4 C         139.9288  140.8869  161.6838 C.3     1  UNL1        0.0938
      5 N         138.8605  141.8285  161.2122 N.3     1  UNL1       -0.2698
      6 C         138.0232  142.5729  162.2095 C.3     1  UNL1        0.0938
      7 C         138.2541  142.3757  163.6785 C.3     1  UNL1        0.1082
      8 C         139.0141  140.0175  166.3060 C.ar    1  UNL1        0.1519
      9 C         139.2450  139.8204  167.7749 C.ar    1  UNL1        0.0382
     10 C         140.0151  140.8428  168.5569 C.ar    1  UNL1        0.0032
     11 C         140.5543  142.0624  167.8700 C.ar    1  UNL1        0.0015
     12 C         140.3233  142.2595  166.4011 C.ar    1  UNL1        0.0176
     13 C         139.5532  141.2370  165.6191 C.ar    1  UNL1        0.0824
     14 C         138.9072  137.7172  165.1029 C.3     1  UNL1        0.2525
     15 O         138.2440  138.9950  165.5240 O.3     1  UNL1       -0.4702
     16 C         139.1480  143.2569  159.0611 C.3     1  UNL1        0.0188
     17 C         140.5022  143.7963  159.4146 C.3     1  UNL1        0.0203
     18 C         140.6308  144.8955  160.4272 C.3     1  UNL1        0.0915
     19 N         141.9145  145.0727  161.1828 N.3     1  UNL1       -0.1794
     20 H         141.7433  145.7870  161.8906 H       1  UNL1        0.1488
     21 S         142.5368  143.9044  161.8884 S.O2    1  UNL1        0.0602
     22 O         141.4766  143.9788  162.9468 O.2     1  UNL1       -0.1530
     23 O         143.5971  143.8301  160.8299 O.2     1  UNL1       -0.1530
     24 C         143.1592  142.7362  162.5939 C.ar    1  UNL1        0.1219
     25 C         143.1594  142.6786  164.0929 C.ar    1  UNL1        0.0196
     26 C         143.7818  141.5103  164.7984 C.ar    1  UNL1       -0.0029
     27 C         144.4040  140.3997  164.0050 C.ar    1  UNL1       -0.0218
     28 C         145.0264  139.2314  164.7106 C.3     1  UNL1        0.0310
     29 C         144.4038  140.4573  162.5062 C.ar    1  UNL1       -0.0029
     30 C         143.7814  141.6256  161.8006 C.ar    1  UNL1        0.0196
@<TRIPOS>BOND
     1    14    15    1
     2    15     8    1
     3     8     9   ar
     4     9    10   ar
     5    10    11   ar
     6    11    12   ar
     7    12    13   ar
     8    13     2    1
     9     2     3    1
    10     3     4    1
    11     4     5    1
    12     5     1    1
    13     1    16    1
    14    16    17    1
    15    17    18    1
    16    18    19    1
    17    19    21    1
    18    21    22    2
    19    21    23    2
    20    21    24    1
    21    24    25   ar
    22    25    26   ar
    23    26    27   ar
    24    27    28    1
    25    27    29   ar
    26    29    30   ar
    27     5     6    1
    28     6     7    1
    29    13     8   ar
    30     7     2    1
    31    30    24   ar
    32    19    20    1
@<TRIPOS>MOLECULE
*****
 30 32 0 0 0
SMALL
GASTEIGER

@<TRIPOS>ATOM
      1 C         140.2375  140.5600  158.1185 C.3     1  UNL1        0.0722
      2 N         142.1427  139.5429  162.0663 N.pl3   1  UNL1       -0.3023
      3 C         141.7038  140.9495  161.7856 C.3     1  UNL1        0.1082
      4 C         141.0687  141.2886  160.4697 C.3     1  UNL1        0.0938
      5 N         140.8725  140.2210  159.4344 N.3     1  UNL1       -0.2698
      6 C         141.3114  138.8144  159.7151 C.3     1  UNL1        0.0938
      7 C         141.9465  138.4753  161.0311 C.3     1  UNL1        0.1082
      8 C         144.2008  139.5947  163.6512 C.ar    1  UNL1        0.1519
      9 C         144.8358  139.2557  164.9671 C.ar    1  UNL1        0.0382
     10 C         144.0478  138.5259  166.0142 C.ar    1  UNL1        0.0032
     11 C         142.6248  138.1350  165.7454 C.ar    1  UNL1        0.0015
     12 C         141.9898  138.4741  164.4294 C.ar    1  UNL1        0.0176
     13 C         142.7778  139.2039  163.3823 C.ar    1  UNL1        0.0824
     14 C         145.2875  141.7848  162.7723 C.3     1  UNL1        0.2525
     15 O         144.9887  140.3246  162.6041 O.3     1  UNL1       -0.4702
     16 C         138.8130  140.1733  157.8513 C.3     1  UNL1        0.0188
     17 C         137.7430  140.5203  158.8436 C.3     1  UNL1        0.0203
     18 C         137.7191  139.8508  160.1857 C.3     1  UNL1        0.0915
     19 N         137.0854  140.5413  161.3570 N.3     1  UNL1       -0.1794
     20 H         136.1602  140.1289  161.4766 H       1  UNL1        0.1488
     21 S         137.7526  140.5048  162.6999 S.O2    1  UNL1        0.0602
     22 O         136.9791  141.7202  163.1173 O.2     1  UNL1       -0.1530
     23 O         138.5262  139.2893  162.2826 O.2     1  UNL1       -0.1530
     24 C         138.4199  140.4683  164.0429 C.ar    1  UNL1        0.1219
     25 C         139.3039  141.6016  164.4722 C.ar    1  UNL1        0.0196
     26 C         139.9711  141.5651  165.8151 C.ar    1  UNL1       -0.0029
     27 C         139.7543  140.3953  166.7288 C.ar    1  UNL1       -0.0218
     28 C         140.4215  140.3588  168.0717 C.3     1  UNL1        0.0310
     29 C         138.8703  139.2621  166.2994 C.ar    1  UNL1       -0.0029
     30 C         138.2031  139.2986  164.9565 C.ar    1  UNL1        0.0196
@<TRIPOS>BOND
     1    14    15    1
     2    15     8    1
     3     8     9   ar
     4     9    10   ar
     5    10    11   ar
     6    11    12   ar
     7    12    13   ar
     8    13     2    1
     9     2     3    1
    10     3     4    1
    11     4     5    1
    12     5     1    1
    13     1    16    1
    14    16    17    1
    15    17    18    1
    16    18    19    1
    17    19    21    1
    18    21    22    2
    19    21    23    2
    20    21    24    1
    21    24    25   ar
    22    25    26   ar
    23    26    27   ar
    24    27    28    1
    25    27    29   ar
    26    29    30   ar
    27     5     6    1
    28     6     7    1
    29    13     8   ar
    30     7     2    1
    31    30    24   ar
    32    19    20    1
@<TRIPOS>MOLECULE
*****
 30 32 0 0 0
SMALL
GASTEIGER

@<TRIPOS>ATOM
      1 C         141.5444  145.1416  158.4685 C.3     1  UNL1        0.0722
      2 N         141.8807  143.7144  162.7229 N.pl3   1  UNL1       -0.3023
      3 C         141.1250  144.9721  162.4113 C.3     1  UNL1        0.1082
      4 C         141.0129  145.4478  160.9932 C.3     1  UNL1        0.0938
      5 N         141.6565  144.6659  159.8866 N.3     1  UNL1       -0.2698
      6 C         142.4123  143.4082  160.1983 C.3     1  UNL1        0.0938
      7 C         142.5244  142.9325  161.6165 C.3     1  UNL1        0.1082
      8 C         143.3386  142.9162  164.7198 C.ar    1  UNL1        0.1519
      9 C         143.4506  142.4405  166.1380 C.ar    1  UNL1        0.0382
     10 C         142.2169  142.2872  166.9773 C.ar    1  UNL1        0.0032
     11 C         140.8712  142.6097  166.3986 C.ar    1  UNL1        0.0015
     12 C         140.7592  143.0854  164.9805 C.ar    1  UNL1        0.0176
     13 C         141.9928  143.2386  164.1411 C.ar    1  UNL1        0.0824
     14 C         145.5488  141.9364  163.7687 C.3     1  UNL1        0.2525
     15 O         144.5722  143.0694  163.8805 O.3     1  UNL1       -0.4702
     16 C         141.0568  144.2080  157.4006 C.3     1  UNL1        0.0188
     17 C         139.6434  143.7066  157.4307 C.3     1  UNL1        0.0203
     18 C         139.2228  142.7112  158.4710 C.3     1  UNL1        0.0915
     19 N         138.5947  143.1822  159.7492 N.3     1  UNL1       -0.1794
     20 H         137.6011  143.3125  159.5585 H       1  UNL1        0.1488
     21 S         138.6914  142.3405  160.9870 S.O2    1  UNL1        0.0602
     22 O         137.8725  143.3492  161.7368 O.2     1  UNL1       -0.1530
     23 O         139.5102  141.3319  160.2372 O.2     1  UNL1       -0.1530
     24 C         138.7880  141.4989  162.2248 C.ar    1  UNL1        0.1219
     25 C         137.7562  141.6327  163.3053 C.ar    1  UNL1        0.0196
     26 C         137.8529  140.7911  164.5431 C.ar    1  UNL1       -0.0029
     27 C         138.9814  139.8155  164.7005 C.ar    1  UNL1       -0.0218
     28 C         139.0781  138.9738  165.9383 C.3     1  UNL1        0.0310
     29 C         140.0132  139.6817  163.6200 C.ar    1  UNL1       -0.0029
     30 C         139.9165  140.5233  162.3822 C.ar    1  UNL1        0.0196
@<TRIPOS>BOND
     1    14    15    1
     2    15     8    1
     3     8     9   ar
     4     9    10   ar
     5    10    11   ar
     6    11    12   ar
     7    12    13   ar
     8    13     2    1
     9     2     3    1
    10     3     4    1
    11     4     5    1
    12     5     1    1
    13     1    16    1
    14    16    17    1
    15    17    18    1
    16    18    19    1
    17    19    21    1
    18    21    22    2
    19    21    23    2
    20    21    24    1
    21    24    25   ar
    22    25    26   ar
    23    26    27   ar
    24    27    28    1
    25    27    29   ar
    26    29    30   ar
    27     5     6    1
    28     6     7    1
    29    13     8   ar
    30     7     2    1
    31    30    24   ar
    32    19    20    1
@<TRIPOS>MOLECULE
*****
 30 32 0 0 0
SMALL
GASTEIGER

@<TRIPOS>ATOM
      1 C         145.1365  141.2996  162.6664 C.3     1  UNL1        0.0722
      2 N         143.0926  141.9796  166.6173 N.pl3   1  UNL1       -0.3023
      3 C         142.9875  140.6463  165.9381 C.3     1  UNL1        0.1082
      4 C         143.6687  140.4196  164.6212 C.3     1  UNL1        0.0938
      5 N         144.4552  141.5263  163.9833 N.3     1  UNL1       -0.2698
      6 C         144.5604  142.8596  164.6625 C.3     1  UNL1        0.0938
      7 C         143.8791  143.0862  165.9795 C.3     1  UNL1        0.1082
      8 C         140.9163  142.3103  167.9973 C.ar    1  UNL1        0.1519
      9 C         140.2350  142.5369  169.3143 C.ar    1  UNL1        0.0382
     10 C         141.0488  142.6595  170.5683 C.ar    1  UNL1        0.0032
     11 C         142.5439  142.5554  170.5054 C.ar    1  UNL1        0.0015
     12 C         143.2251  142.3288  169.1884 C.ar    1  UNL1        0.0176
     13 C         142.4113  142.2062  167.9344 C.ar    1  UNL1        0.0824
     14 C         139.9858  143.3545  165.8078 C.3     1  UNL1        0.2525
     15 O         140.1025  142.1877  166.7432 O.3     1  UNL1       -0.4702
     16 C         144.3203  141.1243  161.4201 C.3     1  UNL1        0.0188
     17 C         143.8359  139.7604  161.0265 C.3     1  UNL1        0.0203
     18 C         142.7729  139.6156  159.9781 C.3     1  UNL1        0.0915
     19 N         141.6251  138.6755  160.1987 N.3     1  UNL1       -0.1794
     20 H         141.9920  137.7307  160.0838 H       1  UNL1        0.1488
     21 S         140.8790  138.6950  161.4998 S.O2    1  UNL1        0.0602
     22 O         140.3540  140.0629  161.1782 O.2     1  UNL1       -0.1530
     23 O         141.4039  137.3272  161.8214 O.2     1  UNL1       -0.1530
     24 C         140.1328  138.7146  162.8009 C.ar    1  UNL1        0.1219
     25 C         140.1588  137.5130  163.6985 C.ar    1  UNL1        0.0196
     26 C         139.4127  137.5326  164.9997 C.ar    1  UNL1       -0.0029
     27 C         138.6406  138.7538  165.4032 C.ar    1  UNL1       -0.0218
     28 C         137.8945  138.7734  166.7043 C.3     1  UNL1        0.0310
     29 C         138.6147  139.9553  164.5056 C.ar    1  UNL1       -0.0029
     30 C         139.3608  139.9357  163.2045 C.ar    1  UNL1        0.0196
@<TRIPOS>BOND
     1    14    15    1
     2    15     8    1
     3     8     9   ar
     4     9    10   ar
     5    10    11   ar
     6    11    12   ar
     7    12    13   ar
     8    13     2    1
     9     2     3    1
    10     3     4    1
    11     4     5    1
    12     5     1    1
    13     1    16    1
    14    16    17    1
    15    17    18    1
    16    18    19    1
    17    19    21    1
    18    21    22    2
    19    21    23    2
    20    21    24    1
    21    24    25   ar
    22    25    26   ar
    23    26    27   ar
    24    27    28    1
    25    27    29   ar
    26    29    30   ar
    27     5     6    1
    28     6     7    1
    29    13     8   ar
    30     7     2    1
    31    30    24   ar
    32    19    20    1
@<TRIPOS>MOLECULE
*****
 30 32 0 0 0
SMALL
GASTEIGER

@<TRIPOS>ATOM
      1 C         140.6801  142.8763  159.9037 C.3     1  UNL1        0.0722
      2 N         141.2643  142.5562  164.3541 N.pl3   1  UNL1       -0.3023
      3 C         141.5372  141.3720  163.4748 C.3     1  UNL1        0.1082
      4 C         141.3424  141.4787  161.9913 C.3     1  UNL1        0.0938
      5 N         140.8748  142.7696  161.3872 N.3     1  UNL1       -0.2698
      6 C         140.6020  143.9538  162.2665 C.3     1  UNL1        0.0938
      7 C         140.7968  143.8471  163.7500 C.3     1  UNL1        0.1082
      8 C         142.8436  142.3603  166.4078 C.ar    1  UNL1        0.1519
      9 C         143.0383  142.2536  167.8913 C.ar    1  UNL1        0.0382
     10 C         141.8485  142.2360  168.8045 C.ar    1  UNL1        0.0032
     11 C         140.4640  142.3251  168.2344 C.ar    1  UNL1        0.0015
     12 C         140.2693  142.4318  166.7509 C.ar    1  UNL1        0.0176
     13 C         141.4591  142.4494  165.8376 C.ar    1  UNL1        0.0824
     14 C         144.7348  143.6710  165.2015 C.3     1  UNL1        0.2525
     15 O         144.0334  142.3780  165.4945 O.3     1  UNL1       -0.4702
     16 C         139.2971  142.9963  159.3355 C.3     1  UNL1        0.0188
     17 C         138.7564  141.9181  158.4439 C.3     1  UNL1        0.0203
     18 C         139.1324  140.4862  158.6857 C.3     1  UNL1        0.0915
     19 N         138.1947  139.5793  159.4262 N.3     1  UNL1       -0.1794
     20 H         138.3506  138.6376  159.0668 H       1  UNL1        0.1488
     21 S         138.2636  139.4889  160.9219 S.O2    1  UNL1        0.0602
     22 O         137.1519  140.4897  161.0336 O.2     1  UNL1       -0.1530
     23 O         139.3752  138.4881  160.8102 O.2     1  UNL1       -0.1530
     24 C         138.3324  139.3985  162.4176 C.ar    1  UNL1        0.1219
     25 C         137.9293  140.5729  163.2593 C.ar    1  UNL1        0.0196
     26 C         137.9982  140.4825  164.7550 C.ar    1  UNL1       -0.0029
     27 C         138.4702  139.2177  165.4090 C.ar    1  UNL1       -0.0218
     28 C         138.5390  139.1273  166.9047 C.3     1  UNL1        0.0310
     29 C         138.8732  138.0434  164.5673 C.ar    1  UNL1       -0.0029
     30 C         138.8043  138.1338  163.0716 C.ar    1  UNL1        0.0196
@<TRIPOS>BOND
     1    14    15    1
     2    15     8    1
     3     8     9   ar
     4     9    10   ar
     5    10    11   ar
     6    11    12   ar
     7    12    13   ar
     8    13     2    1
     9     2     3    1
    10     3     4    1
    11     4     5    1
    12     5     1    1
    13     1    16    1
    14    16    17    1
    15    17    18    1
    16    18    19    1
    17    19    21    1
    18    21    22    2
    19    21    23    2
    20    21    24    1
    21    24    25   ar
    22    25    26   ar
    23    26    27   ar
    24    27    28    1
    25    27    29   ar
    26    29    30   ar
    27     5     6    1
    28     6     7    1
    29    13     8   ar
    30     7     2    1
    31    30    24   ar
    32    19    20    1
@<TRIPOS>MOLECULE
*****
 30 32 0 0 0
SMALL
GASTEIGER

@<TRIPOS>ATOM
      1 C         143.5136  139.1730  160.1981 C.3     1  UNL1        0.0722
      2 N         142.2141  140.1370  164.3972 N.pl3   1  UNL1       -0.3023
      3 C         142.0244  141.1455  163.3032 C.3     1  UNL1        0.1082
      4 C         142.4576  140.8242  161.9035 C.3     1  UNL1        0.0938
      5 N         143.0805  139.4943  161.5978 N.3     1  UNL1       -0.2698
      6 C         143.2701  138.4857  162.6918 C.3     1  UNL1        0.0938
      7 C         142.8369  138.8071  164.0915 C.3     1  UNL1        0.1082
      8 C         141.1393  141.7802  166.0986 C.ar    1  UNL1        0.1519
      9 C         140.7062  142.1015  167.4982 C.ar    1  UNL1        0.0382
     10 C         140.9146  141.1010  168.5962 C.ar    1  UNL1        0.0032
     11 C         141.5561  139.7791  168.2945 C.ar    1  UNL1        0.0015
     12 C         141.9893  139.4578  166.8948 C.ar    1  UNL1        0.0176
     13 C         141.7809  140.4583  165.7969 C.ar    1  UNL1        0.0824
     14 C         139.7099  143.6519  165.0017 C.3     1  UNL1        0.2525
     15 O         140.9309  142.7807  165.0006 O.3     1  UNL1       -0.4702
     16 C         142.4990  138.7505  159.1774 C.3     1  UNL1        0.0188
     17 C         141.4571  139.7224  158.7086 C.3     1  UNL1        0.0203
     18 C         140.0512  139.6202  159.2213 C.3     1  UNL1        0.0915
     19 N         139.6302  138.4238  160.0223 N.3     1  UNL1       -0.1794
     20 H         140.3858  137.7422  159.9528 H       1  UNL1        0.1488
     21 S         139.3132  138.5717  161.4810 S.O2    1  UNL1        0.0602
     22 O         138.4101  139.7276  161.1675 O.2     1  UNL1       -0.1530
     23 O         140.2162  137.4157  161.7944 O.2     1  UNL1       -0.1530
     24 C         138.9962  138.7195  162.9396 C.ar    1  UNL1        0.1219
     25 C         138.4561  140.0179  163.4619 C.ar    1  UNL1        0.0196
     26 C         138.1391  140.1658  164.9206 C.ar    1  UNL1       -0.0029
     27 C         138.3622  139.0153  165.8569 C.ar    1  UNL1       -0.0218
     28 C         138.0452  139.1631  167.3156 C.3     1  UNL1        0.0310
     29 C         138.9022  137.7170  165.3346 C.ar    1  UNL1       -0.0029
     30 C         139.2192  137.5691  163.8760 C.ar    1  UNL1        0.0196
@<TRIPOS>BOND
     1    14    15    1
     2    15     8    1
     3     8     9   ar
     4     9    10   ar
     5    10    11   ar
     6    11    12   ar
     7    12    13   ar
     8    13     2    1
     9     2     3    1
    10     3     4    1
    11     4     5    1
    12     5     1    1
    13     1    16    1
    14    16    17    1
    15    17    18    1
    16    18    19    1
    17    19    21    1
    18    21    22    2
    19    21    23    2
    20    21    24    1
    21    24    25   ar
    22    25    26   ar
    23    26    27   ar
    24    27    28    1
    25    27    29   ar
    26    29    30   ar
    27     5     6    1
    28     6     7    1
    29    13     8   ar
    30     7     2    1
    31    30    24   ar
    32    19    20    1
