@<TRIPOS>MOLECULE
*****
 32 35 0 0 0
SMALL
GASTEIGER

@<TRIPOS>ATOM
      1 C         141.6885  138.8390  164.9683 C.ar    1  UNL1        0.0576
      2 C         141.0230  138.2172  163.7766 C.ar    1  UNL1        0.0386
      3 C         139.5389  137.9989  163.7754 C.ar    1  UNL1        0.1286
      4 N         138.7205  138.4024  164.9658 N.ar    1  UNL1       -0.2309
      5 C         139.3861  139.0244  166.1576 C.ar    1  UNL1        0.0829
      6 C         138.5676  139.4279  167.3481 C.ar    1  UNL1        0.0200
      7 C         139.2332  140.0498  168.5398 C.ar    1  UNL1        0.0129
      8 C         140.7173  140.2681  168.5410 C.ar    1  UNL1        0.0578
      9 CL        141.3828  140.8900  169.7328 Cl      1  UNL1       -0.0822
     10 C         141.5357  139.8645  167.3506 C.ar    1  UNL1        0.0130
     11 C         140.8701  139.2427  166.1589 C.ar    1  UNL1        0.0230
     12 O         144.0433  138.2863  165.9170 O.2     1  UNL1       -0.2701
     13 C         143.1726  139.0573  164.9696 C.2     1  UNL1        0.2460
     14 N         143.7859  140.0465  164.0234 N.am    1  UNL1       -0.2994
     15 H         143.2145  140.5525  163.4016 H       1  UNL1        0.1498
     16 C         145.2700  140.2648  164.0247 C.3     1  UNL1        0.1070
     17 C         145.8314  141.6039  163.6481 C.3     1  UNL1        0.0936
     18 N         144.9387  142.8090  163.6150 N.3     1  UNL1       -0.2712
     19 C         144.4378  143.5015  162.3824 C.3     1  UNL1        0.0722
     20 C         143.5798  144.6536  162.8142 C.3     1  UNL1        0.0188
     21 C         143.5504  144.6731  164.3138 C.3     1  UNL1        0.0188
     22 C         144.3903  143.5331  164.8088 C.3     1  UNL1        0.0722
     23 N         138.8733  137.3770  162.5836 N.pl3   1  UNL1       -0.3181
     24 H         138.5785  136.4383  162.6185 H       1  UNL1        0.1482
     25 C         138.6570  138.1852  161.3386 C.3     1  UNL1        0.0882
     26 C         137.5251  139.1669  161.2691 C.3     1  UNL1        0.0214
     27 C         137.7943  140.6344  161.4245 C.3     1  UNL1        0.0067
     28 C         137.4280  141.3331  162.7002 C.3     1  UNL1        0.0322
     29 C         137.6973  142.8005  162.8557 C.3     1  UNL1        0.1422
     30 O         138.3328  143.5692  161.7353 O.3     1  UNL1       -0.3538
     31 C         138.6991  142.8704  160.4595 C.3     1  UNL1        0.1422
     32 C         138.4299  141.4030  160.3041 C.3     1  UNL1        0.0322
@<TRIPOS>BOND
     1    12    13    2
     2    13    14   am
     3    14    16    1
     4    16    17    1
     5    17    18    1
     6    18    19    1
     7    19    20    1
     8    20    21    1
     9    21    22    1
    10    13     1    1
    11     1     2   ar
    12     2     3   ar
    13     3    23    1
    14    23    25    1
    15    25    26    1
    16    26    27    1
    17    27    28    1
    18    28    29    1
    19    29    30    1
    20    30    31    1
    21    31    32    1
    22     3     4   ar
    23     4     5   ar
    24     5     6   ar
    25     6     7   ar
    26     7     8   ar
    27     8     9    1
    28     8    10   ar
    29    10    11   ar
    30    22    18    1
    31    11     1   ar
    32    32    27    1
    33    11     5   ar
    34    14    15    1
    35    23    24    1
@<TRIPOS>MOLECULE
*****
 32 35 0 0 0
SMALL
GASTEIGER

@<TRIPOS>ATOM
      1 C         140.6034  140.0531  165.2958 C.ar    1  UNL1        0.0576
      2 C         141.7314  139.7160  164.3663 C.ar    1  UNL1        0.0386
      3 C         143.0601  139.2956  164.9209 C.ar    1  UNL1        0.1286
      4 N         143.2610  139.2123  166.4050 N.ar    1  UNL1       -0.2309
      5 C         142.1330  139.5495  167.3346 C.ar    1  UNL1        0.0829
      6 C         142.3338  139.4662  168.8188 C.ar    1  UNL1        0.0200
      7 C         141.2058  139.8033  169.7482 C.ar    1  UNL1        0.0129
      8 C         139.8770  140.2237  169.1936 C.ar    1  UNL1        0.0578
      9 CL        138.7490  140.5609  170.1232 Cl      1  UNL1       -0.0822
     10 C         139.6762  140.3070  167.7095 C.ar    1  UNL1        0.0130
     11 C         140.8042  139.9699  166.7800 C.ar    1  UNL1        0.0230
     12 O         138.1150  139.5225  164.7701 O.2     1  UNL1       -0.2701
     13 C         139.2747  140.4736  164.7411 C.2     1  UNL1        0.2460
     14 N         139.1055  141.8449  164.1575 N.am    1  UNL1       -0.2994
     15 H         139.8666  142.4691  164.1384 H       1  UNL1        0.1498
     16 C         137.7767  142.2653  163.6028 C.3     1  UNL1        0.1070
     17 C         137.7105  143.0367  162.3180 C.3     1  UNL1        0.0936
     18 N         138.8055  143.9985  161.9633 N.3     1  UNL1       -0.2712
     19 C         139.0794  145.3102  162.6374 C.3     1  UNL1        0.0722
     20 C         140.2621  145.9399  161.9630 C.3     1  UNL1        0.0188
     21 C         140.7191  145.0174  160.8721 C.3     1  UNL1        0.0188
     22 C         139.8189  143.8175  160.8723 C.3     1  UNL1        0.0722
     23 N         144.1881  138.9585  163.9913 N.pl3   1  UNL1       -0.3181
     24 H         144.2627  138.0512  163.6165 H       1  UNL1        0.1482
     25 C         145.2025  140.0037  163.6329 C.3     1  UNL1        0.0882
     26 C         144.8191  141.1455  162.7391 C.3     1  UNL1        0.0214
     27 C         144.5343  142.4957  163.3274 C.3     1  UNL1        0.0067
     28 C         144.6870  142.7182  164.8030 C.3     1  UNL1        0.0322
     29 C         144.4022  144.0682  165.3913 C.3     1  UNL1        0.1422
     30 O         143.9647  145.1958  164.5041 O.3     1  UNL1       -0.3538
     31 C         143.8121  144.9733  163.0286 C.3     1  UNL1        0.1422
     32 C         144.0968  143.6233  162.4402 C.3     1  UNL1        0.0322
@<TRIPOS>BOND
     1    12    13    2
     2    13    14   am
     3    14    16    1
     4    16    17    1
     5    17    18    1
     6    18    19    1
     7    19    20    1
     8    20    21    1
     9    21    22    1
    10    13     1    1
    11     1     2   ar
    12     2     3   ar
    13     3    23    1
    14    23    25    1
    15    25    26    1
    16    26    27    1
    17    27    28    1
    18    28    29    1
    19    29    30    1
    20    30    31    1
    21    31    32    1
    22     3     4   ar
    23     4     5   ar
    24     5     6   ar
    25     6     7   ar
    26     7     8   ar
    27     8     9    1
    28     8    10   ar
    29    10    11   ar
    30    22    18    1
    31    11     1   ar
    32    32    27    1
    33    11     5   ar
    34    14    15    1
    35    23    24    1
@<TRIPOS>MOLECULE
*****
 32 35 0 0 0
SMALL
GASTEIGER

@<TRIPOS>ATOM
      1 C         140.5090  141.9893  165.1099 C.ar    1  UNL1        0.0576
      2 C         140.0255  141.0610  164.0355 C.ar    1  UNL1        0.0386
      3 C         139.2945  139.8039  164.4035 C.ar    1  UNL1        0.1286
      4 N         139.0471  139.4751  165.8459 N.ar    1  UNL1       -0.2309
      5 C         139.5306  140.4034  166.9204 C.ar    1  UNL1        0.0829
      6 C         139.2832  140.0747  168.3629 C.ar    1  UNL1        0.0200
      7 C         139.7668  141.0029  169.4373 C.ar    1  UNL1        0.0129
      8 C         140.4978  142.2600  169.0693 C.ar    1  UNL1        0.0578
      9 CL        140.9813  143.1883  170.1438 Cl      1  UNL1       -0.0822
     10 C         140.7452  142.5888  167.6268 C.ar    1  UNL1        0.0130
     11 C         140.2616  141.6605  166.5524 C.ar    1  UNL1        0.0230
     12 O         140.4752  144.5113  164.4869 O.2     1  UNL1       -0.2701
     13 C         141.2400  143.2463  164.7419 C.2     1  UNL1        0.2460
     14 N         142.7357  143.2384  164.6289 N.am    1  UNL1       -0.2994
     15 H         143.2376  142.4082  164.7962 H       1  UNL1        0.1498
     16 C         143.4667  144.4955  164.2609 C.3     1  UNL1        0.1070
     17 C         143.9246  144.7107  162.8487 C.3     1  UNL1        0.0936
     18 N         143.1842  144.0674  161.7139 N.3     1  UNL1       -0.2712
     19 C         143.6735  142.9212  160.8791 C.3     1  UNL1        0.0722
     20 C         142.6162  142.6026  159.8639 C.3     1  UNL1        0.0188
     21 C         141.4735  143.5519  160.0712 C.3     1  UNL1        0.0188
     22 C         141.8245  144.4572  161.2146 C.3     1  UNL1        0.0722
     23 N         138.8109  138.8756  163.3290 N.pl3   1  UNL1       -0.3181
     24 H         137.9135  138.9954  162.9422 H       1  UNL1        0.1482
     25 C         139.6946  137.7649  162.8439 C.3     1  UNL1        0.0882
     26 C         140.7580  137.2059  163.7419 C.3     1  UNL1        0.0214
     27 C         142.0591  137.9339  163.9071 C.3     1  UNL1        0.0067
     28 C         142.5667  138.2606  165.2803 C.3     1  UNL1        0.0322
     29 C         143.8678  138.9885  165.4454 C.3     1  UNL1        0.1422
     30 O         144.6612  139.3898  164.2374 O.3     1  UNL1       -0.3538
     31 C         144.1536  139.0631  162.8642 C.3     1  UNL1        0.1422
     32 C         142.8526  138.3352  162.6990 C.3     1  UNL1        0.0322
@<TRIPOS>BOND
     1    12    13    2
     2    13    14   am
     3    14    16    1
     4    16    17    1
     5    17    18    1
     6    18    19    1
     7    19    20    1
     8    20    21    1
     9    21    22    1
    10    13     1    1
    11     1     2   ar
    12     2     3   ar
    13     3    23    1
    14    23    25    1
    15    25    26    1
    16    26    27    1
    17    27    28    1
    18    28    29    1
    19    29    30    1
    20    30    31    1
    21    31    32    1
    22     3     4   ar
    23     4     5   ar
    24     5     6   ar
    25     6     7   ar
    26     7     8   ar
    27     8     9    1
    28     8    10   ar
    29    10    11   ar
    30    22    18    1
    31    11     1   ar
    32    32    27    1
    33    11     5   ar
    34    14    15    1
    35    23    24    1
@<TRIPOS>MOLECULE
*****
 32 35 0 0 0
SMALL
GASTEIGER

@<TRIPOS>ATOM
      1 C         141.1435  141.7649  165.2571 C.ar    1  UNL1        0.0576
      2 C         140.9528  140.6954  164.2228 C.ar    1  UNL1        0.0386
      3 C         140.2716  139.4103  164.5896 C.ar    1  UNL1        0.1286
      4 N         139.7812  139.1947  165.9906 N.ar    1  UNL1       -0.2309
      5 C         139.9720  140.2642  167.0250 C.ar    1  UNL1        0.0829
      6 C         139.4815  140.0486  168.4260 C.ar    1  UNL1        0.0200
      7 C         139.6723  141.1181  169.4603 C.ar    1  UNL1        0.0129
      8 C         140.3534  142.4032  169.0935 C.ar    1  UNL1        0.0578
      9 CL        140.5442  143.4727  170.1279 Cl      1  UNL1       -0.0822
     10 C         140.8439  142.6188  167.6925 C.ar    1  UNL1        0.0130
     11 C         140.6531  141.5493  166.6582 C.ar    1  UNL1        0.0230
     12 O         141.0095  144.2782  164.6126 O.2     1  UNL1       -0.2701
     13 C         141.8247  143.0500  164.8903 C.2     1  UNL1        0.2460
     14 N         143.3209  143.1069  164.8012 N.am    1  UNL1       -0.2994
     15 H         143.8559  142.3008  164.9835 H       1  UNL1        0.1498
     16 C         144.0021  144.3920  164.4345 C.3     1  UNL1        0.1070
     17 C         143.9504  144.8915  163.0209 C.3     1  UNL1        0.0936
     18 N         143.5743  143.9577  161.9089 N.3     1  UNL1       -0.2712
     19 C         144.4563  142.9053  161.3050 C.3     1  UNL1        0.0722
     20 C         143.6773  142.2095  160.2284 C.3     1  UNL1        0.0188
     21 C         142.3139  142.8318  160.1669 C.3     1  UNL1        0.0188
     22 C         142.2501  143.9123  161.2055 C.3     1  UNL1        0.0722
     23 N         140.0809  138.3408  163.5552 N.pl3   1  UNL1       -0.3181
     24 H         140.8608  137.8603  163.1943 H       1  UNL1        0.1482
     25 C         138.7020  138.0033  163.0708 C.3     1  UNL1        0.0882
     26 C         138.1496  138.6786  161.8507 C.3     1  UNL1        0.0214
     27 C         138.0751  140.1756  161.7910 C.3     1  UNL1        0.0067
     28 C         137.5614  140.9486  162.9694 C.3     1  UNL1        0.0322
     29 C         137.4870  142.4455  162.9096 C.3     1  UNL1        0.1422
     30 O         137.9262  143.1695  161.6715 O.3     1  UNL1       -0.3538
     31 C         138.4398  142.3965  160.4931 C.3     1  UNL1        0.1422
     32 C         138.5143  140.8995  160.5529 C.3     1  UNL1        0.0322
@<TRIPOS>BOND
     1    12    13    2
     2    13    14   am
     3    14    16    1
     4    16    17    1
     5    17    18    1
     6    18    19    1
     7    19    20    1
     8    20    21    1
     9    21    22    1
    10    13     1    1
    11     1     2   ar
    12     2     3   ar
    13     3    23    1
    14    23    25    1
    15    25    26    1
    16    26    27    1
    17    27    28    1
    18    28    29    1
    19    29    30    1
    20    30    31    1
    21    31    32    1
    22     3     4   ar
    23     4     5   ar
    24     5     6   ar
    25     6     7   ar
    26     7     8   ar
    27     8     9    1
    28     8    10   ar
    29    10    11   ar
    30    22    18    1
    31    11     1   ar
    32    32    27    1
    33    11     5   ar
    34    14    15    1
    35    23    24    1
@<TRIPOS>MOLECULE
*****
 32 35 0 0 0
SMALL
GASTEIGER

@<TRIPOS>ATOM
      1 C         140.9128  141.3503  165.2686 C.ar    1  UNL1        0.0576
      2 C         140.9586  140.2286  164.2739 C.ar    1  UNL1        0.0386
      3 C         141.5809  138.9168  164.6507 C.ar    1  UNL1        0.1286
      4 N         142.1574  138.7267  166.0224 N.ar    1  UNL1       -0.2309
      5 C         142.1116  139.8485  167.0173 C.ar    1  UNL1        0.0829
      6 C         142.6881  139.6584  168.3889 C.ar    1  UNL1        0.0200
      7 C         142.6423  140.7801  169.3837 C.ar    1  UNL1        0.0129
      8 C         142.0200  142.0919  169.0068 C.ar    1  UNL1        0.0578
      9 CL        141.9742  143.2136  170.0017 Cl      1  UNL1       -0.0822
     10 C         141.4435  142.2819  167.6352 C.ar    1  UNL1        0.0130
     11 C         141.4893  141.1602  166.6404 C.ar    1  UNL1        0.0230
     12 O         141.1593  143.8133  164.4795 O.2     1  UNL1       -0.2701
     13 C         140.2905  142.6620  164.8918 C.2     1  UNL1        0.2460
     14 N         138.7996  142.8225  164.9271 N.am    1  UNL1       -0.2994
     15 H         138.2295  142.0669  165.1977 H       1  UNL1        0.1498
     16 C         138.1773  144.1343  164.5503 C.3     1  UNL1        0.1070
     17 C         137.7993  144.4027  163.1237 C.3     1  UNL1        0.0936
     18 N         138.8659  144.5355  162.0774 N.3     1  UNL1       -0.2712
     19 C         139.6752  145.7664  161.7946 C.3     1  UNL1        0.0722
     20 C         140.6200  145.4523  160.6727 C.3     1  UNL1        0.0188
     21 C         140.3947  144.0273  160.2621 C.3     1  UNL1        0.0188
     22 C         139.3106  143.4606  161.1303 C.3     1  UNL1        0.0722
     23 N         141.6267  137.7951  163.6558 N.pl3   1  UNL1       -0.3181
     24 H         141.2399  136.9189  163.8837 H       1  UNL1        0.1482
     25 C         142.2619  138.0083  162.3138 C.3     1  UNL1        0.0882
     26 C         143.7343  138.2770  162.2152 C.3     1  UNL1        0.0214
     27 C         144.2602  139.6641  162.4380 C.3     1  UNL1        0.0067
     28 C         144.0973  140.7079  161.3732 C.3     1  UNL1        0.0322
     29 C         144.6231  142.0949  161.5959 C.3     1  UNL1        0.1422
     30 O         145.3119  142.4381  162.8834 O.3     1  UNL1       -0.3538
     31 C         145.4748  141.3943  163.9482 C.3     1  UNL1        0.1422
     32 C         144.9490  140.0073  163.7255 C.3     1  UNL1        0.0322
@<TRIPOS>BOND
     1    12    13    2
     2    13    14   am
     3    14    16    1
     4    16    17    1
     5    17    18    1
     6    18    19    1
     7    19    20    1
     8    20    21    1
     9    21    22    1
    10    13     1    1
    11     1     2   ar
    12     2     3   ar
    13     3    23    1
    14    23    25    1
    15    25    26    1
    16    26    27    1
    17    27    28    1
    18    28    29    1
    19    29    30    1
    20    30    31    1
    21    31    32    1
    22     3     4   ar
    23     4     5   ar
    24     5     6   ar
    25     6     7   ar
    26     7     8   ar
    27     8     9    1
    28     8    10   ar
    29    10    11   ar
    30    22    18    1
    31    11     1   ar
    32    32    27    1
    33    11     5   ar
    34    14    15    1
    35    23    24    1
@<TRIPOS>MOLECULE
*****
 32 35 0 0 0
SMALL
GASTEIGER

@<TRIPOS>ATOM
      1 C         141.8698  139.7079  165.5473 C.ar    1  UNL1        0.0576
      2 C         141.1912  138.6596  164.7162 C.ar    1  UNL1        0.0386
      3 C         141.3623  138.6572  163.2260 C.ar    1  UNL1        0.1286
      4 N         142.2118  139.7030  162.5669 N.ar    1  UNL1       -0.2309
      5 C         142.8904  140.7513  163.3980 C.ar    1  UNL1        0.0829
      6 C         143.7399  141.7971  162.7388 C.ar    1  UNL1        0.0200
      7 C         144.4184  142.8454  163.5699 C.ar    1  UNL1        0.0129
      8 C         144.2474  142.8478  165.0601 C.ar    1  UNL1        0.0578
      9 CL        144.9260  143.8962  165.8912 Cl      1  UNL1       -0.0822
     10 C         143.3979  141.8020  165.7193 C.ar    1  UNL1        0.0130
     11 C         142.7194  140.7538  164.8882 C.ar    1  UNL1        0.0230
     12 O         140.4077  140.1752  167.6435 O.2     1  UNL1       -0.2701
     13 C         141.6987  139.7103  167.0375 C.2     1  UNL1        0.2460
     14 N         142.8186  139.2478  167.9218 N.am    1  UNL1       -0.2994
     15 H         143.6659  138.9427  167.5240 H       1  UNL1        0.1498
     16 C         142.6476  139.2503  169.4120 C.3     1  UNL1        0.1070
     17 C         142.8770  140.5114  170.1912 C.3     1  UNL1        0.0936
     18 N         141.8357  141.5911  170.1939 N.3     1  UNL1       -0.2712
     19 C         141.9236  142.9026  169.4713 C.3     1  UNL1        0.0722
     20 C         140.6660  143.6710  169.7506 C.3     1  UNL1        0.0188
     21 C         139.8008  142.8344  170.6459 C.3     1  UNL1        0.0188
     22 C         140.5237  141.5489  170.9200 C.3     1  UNL1        0.0722
     23 N         140.6837  137.6089  162.3949 N.pl3   1  UNL1       -0.3181
     24 H         141.0720  136.7067  162.3275 H       1  UNL1        0.1482
     25 C         139.4137  137.9351  161.6667 C.3     1  UNL1        0.0882
     26 C         138.2815  138.5982  162.3936 C.3     1  UNL1        0.0214
     27 C         138.1207  140.0883  162.3316 C.3     1  UNL1        0.0067
     28 C         137.7043  140.8493  163.5553 C.3     1  UNL1        0.0322
     29 C         137.5435  142.3393  163.4934 C.3     1  UNL1        0.1422
     30 O         137.7991  143.0684  162.2077 O.3     1  UNL1       -0.3538
     31 C         138.2156  142.3075  160.9840 C.3     1  UNL1        0.1422
     32 C         138.3763  140.8174  161.0459 C.3     1  UNL1        0.0322
@<TRIPOS>BOND
     1    12    13    2
     2    13    14   am
     3    14    16    1
     4    16    17    1
     5    17    18    1
     6    18    19    1
     7    19    20    1
     8    20    21    1
     9    21    22    1
    10    13     1    1
    11     1     2   ar
    12     2     3   ar
    13     3    23    1
    14    23    25    1
    15    25    26    1
    16    26    27    1
    17    27    28    1
    18    28    29    1
    19    29    30    1
    20    30    31    1
    21    31    32    1
    22     3     4   ar
    23     4     5   ar
    24     5     6   ar
    25     6     7   ar
    26     7     8   ar
    27     8     9    1
    28     8    10   ar
    29    10    11   ar
    30    22    18    1
    31    11     1   ar
    32    32    27    1
    33    11     5   ar
    34    14    15    1
    35    23    24    1
@<TRIPOS>MOLECULE
*****
 32 35 0 0 0
SMALL
GASTEIGER

@<TRIPOS>ATOM
      1 C         140.6863  141.1403  165.2304 C.ar    1  UNL1        0.0576
      2 C         141.7312  140.9721  164.1675 C.ar    1  UNL1        0.0386
      3 C         143.0312  140.2986  164.4936 C.ar    1  UNL1        0.1286
      4 N         143.2863  139.7933  165.8827 N.ar    1  UNL1       -0.2309
      5 C         142.2414  139.9615  166.9457 C.ar    1  UNL1        0.0829
      6 C         142.4965  139.4562  168.3348 C.ar    1  UNL1        0.0200
      7 C         141.4516  139.6244  169.3977 C.ar    1  UNL1        0.0129
      8 C         140.1516  140.2979  169.0715 C.ar    1  UNL1        0.0578
      9 CL        139.1066  140.4661  170.1345 Cl      1  UNL1       -0.0822
     10 C         139.8965  140.8032  167.6825 C.ar    1  UNL1        0.0130
     11 C         140.9414  140.6350  166.6195 C.ar    1  UNL1        0.0230
     12 O         138.1681  140.9898  164.6088 O.2     1  UNL1       -0.2701
     13 C         139.3863  141.8138  164.9042 C.2     1  UNL1        0.2460
     14 N         139.3044  143.3112  164.8735 N.am    1  UNL1       -0.2994
     15 H         140.1038  143.8520  165.0675 H       1  UNL1        0.1498
     16 C         138.0043  143.9847  164.5474 C.3     1  UNL1        0.1070
     17 C         137.6889  144.3597  163.1296 C.3     1  UNL1        0.0936
     18 N         138.4388  143.7186  161.9997 N.3     1  UNL1       -0.2712
     19 C         139.6707  144.2618  161.3385 C.3     1  UNL1        0.0722
     20 C         140.0816  143.3006  160.2627 C.3     1  UNL1        0.0188
     21 C         139.1037  142.1633  160.2591 C.3     1  UNL1        0.0188
     22 C         138.0883  142.4215  161.3326 C.3     1  UNL1        0.0722
     23 N         144.0761  140.1304  163.4306 N.pl3   1  UNL1       -0.3181
     24 H         144.9649  140.5382  163.5451 H       1  UNL1        0.1482
     25 C         143.7670  139.3410  162.1932 C.3     1  UNL1        0.0882
     26 C         143.0273  138.0403  162.2988 C.3     1  UNL1        0.0214
     27 C         141.5351  138.0117  162.1480 C.3     1  UNL1        0.0067
     28 C         140.6729  137.5892  163.3004 C.3     1  UNL1        0.0322
     29 C         139.1808  137.5606  163.1496 C.3     1  UNL1        0.1422
     30 O         138.5509  137.9543  161.8465 O.3     1  UNL1       -0.3538
     31 C         139.4132  138.3768  160.6941 C.3     1  UNL1        0.1422
     32 C         140.9053  138.4055  160.8448 C.3     1  UNL1        0.0322
@<TRIPOS>BOND
     1    12    13    2
     2    13    14   am
     3    14    16    1
     4    16    17    1
     5    17    18    1
     6    18    19    1
     7    19    20    1
     8    20    21    1
     9    21    22    1
    10    13     1    1
    11     1     2   ar
    12     2     3   ar
    13     3    23    1
    14    23    25    1
    15    25    26    1
    16    26    27    1
    17    27    28    1
    18    28    29    1
    19    29    30    1
    20    30    31    1
    21    31    32    1
    22     3     4   ar
    23     4     5   ar
    24     5     6   ar
    25     6     7   ar
    26     7     8   ar
    27     8     9    1
    28     8    10   ar
    29    10    11   ar
    30    22    18    1
    31    11     1   ar
    32    32    27    1
    33    11     5   ar
    34    14    15    1
    35    23    24    1
@<TRIPOS>MOLECULE
*****
 32 35 0 0 0
SMALL
GASTEIGER

@<TRIPOS>ATOM
      1 C         138.8642  140.3464  161.3170 C.ar    1  UNL1        0.0576
      2 C         138.4402  141.4773  162.2064 C.ar    1  UNL1        0.0386
      3 C         138.0608  142.7998  161.6089 C.ar    1  UNL1        0.1286
      4 N         138.1054  142.9914  160.1219 N.ar    1  UNL1       -0.2309
      5 C         138.5293  141.8604  159.2323 C.ar    1  UNL1        0.0829
      6 C         138.5739  142.0519  157.7453 C.ar    1  UNL1        0.0200
      7 C         138.9978  140.9210  156.8558 C.ar    1  UNL1        0.0129
      8 C         139.3772  139.5985  157.4534 C.ar    1  UNL1        0.0578
      9 CL        139.8012  138.4675  156.5639 Cl      1  UNL1       -0.0822
     10 C         139.3327  139.4069  158.9404 C.ar    1  UNL1        0.0130
     11 C         138.9087  140.5379  159.8299 C.ar    1  UNL1        0.0230
     12 O         138.2092  137.9496  162.0763 O.2     1  UNL1       -0.2701
     13 C         139.2436  139.0239  161.9146 C.2     1  UNL1        0.2460
     14 N         140.6572  138.7757  162.3504 N.am    1  UNL1       -0.2994
     15 H         141.3360  139.4808  162.2442 H       1  UNL1        0.1498
     16 C         141.0366  137.4532  162.9480 C.3     1  UNL1        0.1070
     17 C         141.0013  137.2646  164.4357 C.3     1  UNL1        0.0936
     18 N         140.0949  138.1127  165.2779 N.3     1  UNL1       -0.2712
     19 C         138.6453  137.8463  165.5564 C.3     1  UNL1        0.0722
     20 C         138.1334  138.9451  166.4400 C.3     1  UNL1        0.0188
     21 C         139.2667  139.8906  166.7076 C.3     1  UNL1        0.0188
     22 C         140.4790  139.3762  165.9894 C.3     1  UNL1        0.0722
     23 N         137.6369  143.9308  162.4984 N.pl3   1  UNL1       -0.3181
     24 H         137.1384  144.6922  162.1229 H       1  UNL1        0.1482
     25 C         137.9724  143.9017  163.9601 C.3     1  UNL1        0.0882
     26 C         139.0354  144.8096  164.5038 C.3     1  UNL1        0.0214
     27 C         140.4522  144.3280  164.6072 C.3     1  UNL1        0.0067
     28 C         141.5418  145.0365  163.8583 C.3     1  UNL1        0.0322
     29 C         142.9586  144.5550  163.9618 C.3     1  UNL1        0.1422
     30 O         143.2858  143.3649  164.8141 O.3     1  UNL1       -0.3538
     31 C         142.1963  142.6563  165.5630 C.3     1  UNL1        0.1422
     32 C         140.7795  143.1379  165.4596 C.3     1  UNL1        0.0322
@<TRIPOS>BOND
     1    12    13    2
     2    13    14   am
     3    14    16    1
     4    16    17    1
     5    17    18    1
     6    18    19    1
     7    19    20    1
     8    20    21    1
     9    21    22    1
    10    13     1    1
    11     1     2   ar
    12     2     3   ar
    13     3    23    1
    14    23    25    1
    15    25    26    1
    16    26    27    1
    17    27    28    1
    18    28    29    1
    19    29    30    1
    20    30    31    1
    21    31    32    1
    22     3     4   ar
    23     4     5   ar
    24     5     6   ar
    25     6     7   ar
    26     7     8   ar
    27     8     9    1
    28     8    10   ar
    29    10    11   ar
    30    22    18    1
    31    11     1   ar
    32    32    27    1
    33    11     5   ar
    34    14    15    1
    35    23    24    1
@<TRIPOS>MOLECULE
*****
 32 35 0 0 0
SMALL
GASTEIGER

@<TRIPOS>ATOM
      1 C         141.7315  140.1904  165.3374 C.ar    1  UNL1        0.0576
      2 C         140.8258  139.8514  164.1908 C.ar    1  UNL1        0.0386
      3 C         139.3842  139.5242  164.4451 C.ar    1  UNL1        0.1286
      4 N         138.8482  139.5361  165.8460 N.ar    1  UNL1       -0.2309
      5 C         139.7539  139.8752  166.9927 C.ar    1  UNL1        0.0829
      6 C         139.2180  139.8871  168.3936 C.ar    1  UNL1        0.0200
      7 C         140.1237  140.2261  169.5402 C.ar    1  UNL1        0.0129
      8 C         141.5653  140.5532  169.2859 C.ar    1  UNL1        0.0578
      9 CL        142.4710  140.8923  170.4326 Cl      1  UNL1       -0.0822
     10 C         142.1012  140.5413  167.8850 C.ar    1  UNL1        0.0130
     11 C         141.1956  140.2023  166.7384 C.ar    1  UNL1        0.0230
     12 O         144.2151  139.4432  165.1840 O.2     1  UNL1       -0.2701
     13 C         143.1731  140.5176  165.0831 C.2     1  UNL1        0.2460
     14 N         143.5728  141.9190  164.7280 N.am    1  UNL1       -0.2994
     15 H         142.8890  142.6241  164.6618 H       1  UNL1        0.1498
     16 C         145.0145  142.2461  164.4737 C.3     1  UNL1        0.1070
     17 C         145.7148  141.6701  163.2787 C.3     1  UNL1        0.0936
     18 N         144.9663  141.4723  161.9939 N.3     1  UNL1       -0.2712
     19 C         144.2970  140.2056  161.5495 C.3     1  UNL1        0.0722
     20 C         143.6728  140.4569  160.2089 C.3     1  UNL1        0.0188
     21 C         143.9562  141.8789  159.8248 C.3     1  UNL1        0.0188
     22 C         144.7557  142.5065  160.9280 C.3     1  UNL1        0.0722
     23 N         138.4785  139.1852  163.2984 N.pl3   1  UNL1       -0.3181
     24 H         138.2918  138.2434  163.0804 H       1  UNL1        0.1482
     25 C         137.8573  140.2809  162.4839 C.3     1  UNL1        0.0882
     26 C         137.2307  141.4601  163.1671 C.3     1  UNL1        0.0214
     27 C         137.9945  142.7445  163.2975 C.3     1  UNL1        0.0067
     28 C         138.1591  143.3860  164.6434 C.3     1  UNL1        0.0322
     29 C         138.9229  144.6703  164.7738 C.3     1  UNL1        0.1422
     30 O         139.5221  145.3132  163.5582 O.3     1  UNL1       -0.3538
     31 C         139.3575  144.6718  162.2123 C.3     1  UNL1        0.1422
     32 C         138.5937  143.3875  162.0819 C.3     1  UNL1        0.0322
@<TRIPOS>BOND
     1    12    13    2
     2    13    14   am
     3    14    16    1
     4    16    17    1
     5    17    18    1
     6    18    19    1
     7    19    20    1
     8    20    21    1
     9    21    22    1
    10    13     1    1
    11     1     2   ar
    12     2     3   ar
    13     3    23    1
    14    23    25    1
    15    25    26    1
    16    26    27    1
    17    27    28    1
    18    28    29    1
    19    29    30    1
    20    30    31    1
    21    31    32    1
    22     3     4   ar
    23     4     5   ar
    24     5     6   ar
    25     6     7   ar
    26     7     8   ar
    27     8     9    1
    28     8    10   ar
    29    10    11   ar
    30    22    18    1
    31    11     1   ar
    32    32    27    1
    33    11     5   ar
    34    14    15    1
    35    23    24    1
