@<TRIPOS>MOLECULE
*****
 40 44 0 0 0
SMALL
GASTEIGER

@<TRIPOS>ATOM
      1 N         139.9175  141.4395  163.5005 N.3     1  UNL1       -0.2671
      2 C         141.1666  141.1329  162.7288 C.3     1  UNL1        0.0899
      3 C         141.4752  141.8884  161.4702 C.3     1  UNL1        0.0896
      4 N         140.5346  142.9505  160.9833 N.3     1  UNL1       -0.2728
      5 C         139.2854  143.2571  161.7549 C.3     1  UNL1        0.0882
      6 C         138.9768  142.5016  163.0135 C.3     1  UNL1        0.0739
      7 C         137.7276  142.8083  163.7852 C.3     1  UNL1        0.0188
      8 C         138.9462  139.3408  164.8411 C.3     1  UNL1        0.1382
      9 C         138.8366  138.9658  166.2893 C.3     1  UNL1        0.0573
     10 C         139.4316  140.0772  167.1023 C.ar    1  UNL1       -0.0224
     11 C         139.6003  140.2594  168.5816 C.ar    1  UNL1       -0.0006
     12 C         140.2465  141.5035  169.1150 C.ar    1  UNL1        0.0711
     13 C         140.7238  142.5654  168.1693 C.ar    1  UNL1        0.0036
     14 C         140.5550  142.3832  166.6900 C.ar    1  UNL1       -0.0033
     15 C         139.9089  141.1391  166.1565 C.ar    1  UNL1       -0.0093
     16 C         139.6089  140.6840  164.7591 C.3     1  UNL1        0.1077
     17 C         140.4153  141.6858  170.5944 C.3     1  UNL1        0.4186
     18 F         140.5841  141.8681  172.0736 F       1  UNL1       -0.1659
     19 F         139.5978  142.9419  170.5329 F       1  UNL1       -0.1659
     20 F         141.2328  140.4296  170.6559 F       1  UNL1       -0.1659
     21 O         138.4757  138.5173  163.6790 O.3     1  UNL1       -0.3542
     22 C         140.7288  137.2572  163.3863 C.3     1  UNL1        0.0346
     23 C         139.4728  137.8271  162.7964 C.3     1  UNL1        0.1422
     24 C         140.8431  143.7060  159.7247 C.3     1  UNL1        0.0488
     25 C         142.0877  143.9917  160.5118 C.3     1  UNL1        0.0161
     26 C         139.4915  143.1579  159.3747 C.3     1  UNL1        0.0362
     27 C         138.8805  143.4644  158.0396 C.3     1  UNL1        0.0951
     28 N         139.6212  144.3191  157.0543 N.am    1  UNL1       -0.2759
     29 C         139.0104  144.6258  155.7191 C.2     1  UNL1        0.2513
     30 O         137.6586  144.0777  155.3691 O.2     1  UNL1       -0.2698
     31 C         140.9730  144.8672  157.4043 C.3     1  UNL1        0.0951
     32 C         141.5839  144.5607  158.7394 C.3     1  UNL1        0.0362
     33 C         139.7511  145.4805  154.7338 C.ar    1  UNL1        0.0807
     34 C         139.6708  146.9753  154.8285 C.ar    1  UNL1        0.0666
     35 C         138.8498  147.6154  155.9084 C.3     1  UNL1        0.0523
     36 N         140.4116  147.8301  153.8432 N.ar    1  UNL1       -0.2282
     37 C         141.2326  147.1900  152.7633 C.ar    1  UNL1        0.1982
     38 N         141.3129  145.6951  152.6686 N.ar    1  UNL1       -0.2282
     39 C         140.5721  144.8403  153.6539 C.ar    1  UNL1        0.0666
     40 C         140.6524  143.3455  153.5593 C.3     1  UNL1        0.0523
@<TRIPOS>BOND
     1    22    23    1
     2    23    21    1
     3     8    21    1
     4     8     9    1
     5     9    10    1
     6    10    11   ar
     7    11    12   ar
     8    12    17    1
     9    17    18    1
    10    17    19    1
    11    17    20    1
    12    12    13   ar
    13    13    14   ar
    14    14    15   ar
    15    15    16    1
    16    16     1    1
    17     1     2    1
    18     2     3    1
    19     3     4    1
    20     4    24    1
    21    24    25    1
    22    24    26    1
    23    26    27    1
    24    27    28    1
    25    28    29   am
    26    29    30    2
    27    29    33    1
    28    33    34   ar
    29    34    35    1
    30    34    36   ar
    31    36    37   ar
    32    37    38   ar
    33    38    39   ar
    34    39    40    1
    35    28    31    1
    36    31    32    1
    37     4     5    1
    38     5     6    1
    39     6     7    1
    40    16     8    1
    41     6     1    1
    42    15    10   ar
    43    32    24    1
    44    39    33   ar
@<TRIPOS>MOLECULE
*****
 40 44 0 0 0
SMALL
GASTEIGER

@<TRIPOS>ATOM
      1 N         140.7872  140.9336  163.6097 N.3     1  UNL1       -0.2671
      2 C         139.9533  141.6779  162.6095 C.3     1  UNL1        0.0899
      3 C         140.5782  142.1927  161.3468 C.3     1  UNL1        0.0896
      4 N         142.0371  141.9631  161.0842 N.3     1  UNL1       -0.2728
      5 C         142.8711  141.2187  162.0844 C.3     1  UNL1        0.0882
      6 C         142.2462  140.7039  163.3471 C.3     1  UNL1        0.0739
      7 C         143.0801  139.9595  164.3473 C.3     1  UNL1        0.0188
      8 C         139.2235  139.2539  164.9802 C.3     1  UNL1        0.1382
      9 C         138.8475  139.0937  166.4235 C.3     1  UNL1        0.0573
     10 C         139.5539  140.1596  167.2076 C.ar    1  UNL1       -0.0224
     11 C         139.5622  140.4902  168.6707 C.ar    1  UNL1       -0.0006
     12 C         140.3831  141.6399  169.1751 C.ar    1  UNL1        0.0711
     13 C         141.1957  142.4588  168.2164 C.ar    1  UNL1        0.0036
     14 C         141.1874  142.1282  166.7534 C.ar    1  UNL1       -0.0033
     15 C         140.3665  140.9785  166.2490 C.ar    1  UNL1       -0.0093
     16 C         140.1623  140.4188  164.8724 C.3     1  UNL1        0.1077
     17 C         140.3914  141.9706  170.6382 C.3     1  UNL1        0.4186
     18 F         140.3997  142.3013  172.1012 F       1  UNL1       -0.1659
     19 F         139.5623  143.1908  170.3670 F       1  UNL1       -0.1659
     20 F         141.2204  140.7503  170.9093 F       1  UNL1       -0.1659
     21 O         138.7447  138.3992  163.8443 O.3     1  UNL1       -0.3542
     22 C         140.9509  137.0359  163.6891 C.3     1  UNL1        0.0346
     23 C         139.7287  137.6082  163.0343 C.3     1  UNL1        0.1422
     24 C         142.6620  142.4779  159.8215 C.3     1  UNL1        0.0488
     25 C         142.0998  143.7545  160.3731 C.3     1  UNL1        0.0161
     26 C         143.0071  141.0226  159.7084 C.3     1  UNL1        0.0362
     27 C         143.7819  140.5253  158.5242 C.3     1  UNL1        0.0951
     28 N         144.2116  141.4833  157.4530 N.am    1  UNL1       -0.2759
     29 C         144.9864  140.9862  156.2688 C.2     1  UNL1        0.2513
     30 O         145.3315  139.5307  156.1557 O.2     1  UNL1       -0.2698
     31 C         143.8665  142.9388  157.5661 C.3     1  UNL1        0.0951
     32 C         143.0917  143.4360  158.7503 C.3     1  UNL1        0.0362
     33 C         145.4161  141.9443  155.1976 C.ar    1  UNL1        0.0807
     34 C         146.7025  142.7022  155.3414 C.ar    1  UNL1        0.0666
     35 C         147.5592  142.5020  156.5563 C.3     1  UNL1        0.0523
     36 N         147.1323  143.6603  154.2702 N.ar    1  UNL1       -0.2282
     37 C         146.2756  143.8605  153.0553 C.ar    1  UNL1        0.1982
     38 N         144.9892  143.1025  152.9115 N.ar    1  UNL1       -0.2282
     39 C         144.5594  142.1444  153.9826 C.ar    1  UNL1        0.0666
     40 C         143.2730  141.3865  153.8389 C.3     1  UNL1        0.0523
@<TRIPOS>BOND
     1    22    23    1
     2    23    21    1
     3     8    21    1
     4     8     9    1
     5     9    10    1
     6    10    11   ar
     7    11    12   ar
     8    12    17    1
     9    17    18    1
    10    17    19    1
    11    17    20    1
    12    12    13   ar
    13    13    14   ar
    14    14    15   ar
    15    15    16    1
    16    16     1    1
    17     1     2    1
    18     2     3    1
    19     3     4    1
    20     4    24    1
    21    24    25    1
    22    24    26    1
    23    26    27    1
    24    27    28    1
    25    28    29   am
    26    29    30    2
    27    29    33    1
    28    33    34   ar
    29    34    35    1
    30    34    36   ar
    31    36    37   ar
    32    37    38   ar
    33    38    39   ar
    34    39    40    1
    35    28    31    1
    36    31    32    1
    37     4     5    1
    38     5     6    1
    39     6     7    1
    40    16     8    1
    41     6     1    1
    42    15    10   ar
    43    32    24    1
    44    39    33   ar
@<TRIPOS>MOLECULE
*****
 40 44 0 0 0
SMALL
GASTEIGER

@<TRIPOS>ATOM
      1 N         140.5629  144.4093  158.5274 N.3     1  UNL1       -0.2671
      2 C         141.3388  145.0216  159.6556 C.3     1  UNL1        0.0899
      3 C         141.0219  144.6482  161.0734 C.3     1  UNL1        0.0896
      4 N         139.9290  143.6624  161.3630 N.3     1  UNL1       -0.2728
      5 C         139.1531  143.0500  160.2347 C.3     1  UNL1        0.0882
      6 C         139.4700  143.4234  158.8169 C.3     1  UNL1        0.0739
      7 C         138.6941  142.8110  157.6887 C.3     1  UNL1        0.0188
      8 C         141.7411  144.0000  156.1632 C.3     1  UNL1        0.1382
      9 C         141.7847  144.7380  154.8580 C.3     1  UNL1        0.0573
     10 C         140.9504  145.9767  154.9978 C.ar    1  UNL1       -0.0224
     11 C         140.6277  147.0831  154.0377 C.ar    1  UNL1       -0.0006
     12 C         139.7458  148.2171  154.4692 C.ar    1  UNL1        0.0711
     13 C         139.1866  148.2447  155.8608 C.ar    1  UNL1        0.0036
     14 C         139.5093  147.1384  156.8209 C.ar    1  UNL1       -0.0033
     15 C         140.3912  146.0044  156.3893 C.ar    1  UNL1       -0.0093
     16 C         140.8799  144.7827  157.1096 C.3     1  UNL1        0.1077
     17 C         139.4230  149.3235  153.5091 C.3     1  UNL1        0.4186
     18 F         139.1003  150.4299  152.5490 F       1  UNL1       -0.1659
     19 F         140.0442  148.5366  152.3934 F       1  UNL1       -0.1659
     20 F         138.8018  150.1105  154.6248 F       1  UNL1       -0.1659
     21 O         142.4366  142.7065  156.4683 O.3     1  UNL1       -0.3542
     22 C         143.3842  142.0582  158.7989 C.3     1  UNL1        0.0346
     23 C         143.5734  142.6788  157.4465 C.3     1  UNL1        0.1422
     24 C         139.6121  143.2890  162.7808 C.3     1  UNL1        0.0488
     25 C         138.6917  144.4608  162.6080 C.3     1  UNL1        0.0161
     26 C         140.6425  142.2469  162.4610 C.3     1  UNL1        0.0362
     27 C         141.0365  141.2383  163.4991 C.3     1  UNL1        0.0951
     28 N         140.4000  141.2718  164.8569 N.am    1  UNL1       -0.2759
     29 C         140.7938  140.2633  165.8950 C.2     1  UNL1        0.2513
     30 O         141.8243  139.2212  165.5753 O.2     1  UNL1       -0.2698
     31 C         139.3695  142.3140  165.1766 C.3     1  UNL1        0.0951
     32 C         138.9756  143.3225  164.1386 C.3     1  UNL1        0.0362
     33 C         140.1573  140.2968  167.2528 C.ar    1  UNL1        0.0807
     34 C         140.7723  141.1147  168.3495 C.ar    1  UNL1        0.0666
     35 C         142.0239  141.8992  168.0883 C.3     1  UNL1        0.0523
     36 N         140.1359  141.1483  169.7074 N.ar    1  UNL1       -0.2282
     37 C         138.8843  140.3638  169.9686 C.ar    1  UNL1        0.1982
     38 N         138.2692  139.5459  168.8719 N.ar    1  UNL1       -0.2282
     39 C         138.9057  139.5123  167.5141 C.ar    1  UNL1        0.0666
     40 C         138.2906  138.6944  166.4174 C.3     1  UNL1        0.0523
@<TRIPOS>BOND
     1    22    23    1
     2    23    21    1
     3     8    21    1
     4     8     9    1
     5     9    10    1
     6    10    11   ar
     7    11    12   ar
     8    12    17    1
     9    17    18    1
    10    17    19    1
    11    17    20    1
    12    12    13   ar
    13    13    14   ar
    14    14    15   ar
    15    15    16    1
    16    16     1    1
    17     1     2    1
    18     2     3    1
    19     3     4    1
    20     4    24    1
    21    24    25    1
    22    24    26    1
    23    26    27    1
    24    27    28    1
    25    28    29   am
    26    29    30    2
    27    29    33    1
    28    33    34   ar
    29    34    35    1
    30    34    36   ar
    31    36    37   ar
    32    37    38   ar
    33    38    39   ar
    34    39    40    1
    35    28    31    1
    36    31    32    1
    37     4     5    1
    38     5     6    1
    39     6     7    1
    40    16     8    1
    41     6     1    1
    42    15    10   ar
    43    32    24    1
    44    39    33   ar
@<TRIPOS>MOLECULE
*****
 40 44 0 0 0
SMALL
GASTEIGER

@<TRIPOS>ATOM
      1 N         143.5116  140.9547  159.4082 N.3     1  UNL1       -0.2671
      2 C         144.1315  140.2993  160.6065 C.3     1  UNL1        0.0899
      3 C         143.6394  140.6345  161.9833 C.3     1  UNL1        0.0896
      4 N         142.5272  141.6250  162.1618 N.3     1  UNL1       -0.2728
      5 C         141.9072  142.2804  160.9635 C.3     1  UNL1        0.0882
      6 C         142.3993  141.9453  159.5867 C.3     1  UNL1        0.0739
      7 C         141.7793  142.6007  158.3884 C.3     1  UNL1        0.0188
      8 C         143.4576  139.5465  157.1369 C.3     1  UNL1        0.1382
      9 C         144.2447  139.5624  155.8601 C.3     1  UNL1        0.0573
     10 C         145.2773  140.6453  155.9656 C.ar    1  UNL1       -0.0224
     11 C         146.3340  141.1208  155.0131 C.ar    1  UNL1       -0.0006
     12 C         147.2416  142.2497  155.4026 C.ar    1  UNL1        0.0711
     13 C         147.0926  142.9031  156.7446 C.ar    1  UNL1        0.0036
     14 C         146.0360  142.4275  157.6971 C.ar    1  UNL1       -0.0033
     15 C         145.1283  141.2987  157.3076 C.ar    1  UNL1       -0.0093
     16 C         144.0037  140.6195  158.0315 C.3     1  UNL1        0.1077
     17 C         148.2983  142.7253  154.4500 C.3     1  UNL1        0.4186
     18 F         149.3549  143.2010  153.4975 F       1  UNL1       -0.1659
     19 F         147.6163  144.0582  154.3591 F       1  UNL1       -0.1659
     20 F         148.9803  141.3925  154.5410 F       1  UNL1       -0.1659
     21 O         142.3235  138.6201  157.4620 O.3     1  UNL1       -0.3542
     22 C         142.9631  136.1852  156.8202 C.3     1  UNL1        0.0346
     23 C         142.6045  137.2023  157.8628 C.3     1  UNL1        0.1422
     24 C         142.0351  141.9601  163.5386 C.3     1  UNL1        0.0488
     25 C         141.4332  143.0946  162.7635 C.3     1  UNL1        0.0161
     26 C         142.8079  140.7093  163.8355 C.3     1  UNL1        0.0362
     27 C         142.8796  140.1875  165.2399 C.3     1  UNL1        0.0951
     28 N         142.1785  140.9166  166.3476 N.am    1  UNL1       -0.2759
     29 C         142.2501  140.3949  167.7521 C.2     1  UNL1        0.2513
     30 O         143.0230  139.1441  168.0490 O.2     1  UNL1       -0.2698
     31 C         141.4056  142.1675  166.0506 C.3     1  UNL1        0.0951
     32 C         141.3340  142.6892  164.6462 C.3     1  UNL1        0.0362
     33 C         141.5490  141.1240  168.8597 C.ar    1  UNL1        0.0807
     34 C         142.3062  142.0965  169.7145 C.ar    1  UNL1        0.0666
     35 C         143.7646  142.3400  169.4617 C.3     1  UNL1        0.0523
     36 N         141.6052  142.8257  170.8222 N.ar    1  UNL1       -0.2282
     37 C         140.1468  142.5822  171.0750 C.ar    1  UNL1        0.1982
     38 N         139.3895  141.6097  170.2202 N.ar    1  UNL1       -0.2282
     39 C         140.0906  140.8806  169.1125 C.ar    1  UNL1        0.0666
     40 C         139.3333  139.9081  168.2577 C.3     1  UNL1        0.0523
@<TRIPOS>BOND
     1    22    23    1
     2    23    21    1
     3     8    21    1
     4     8     9    1
     5     9    10    1
     6    10    11   ar
     7    11    12   ar
     8    12    17    1
     9    17    18    1
    10    17    19    1
    11    17    20    1
    12    12    13   ar
    13    13    14   ar
    14    14    15   ar
    15    15    16    1
    16    16     1    1
    17     1     2    1
    18     2     3    1
    19     3     4    1
    20     4    24    1
    21    24    25    1
    22    24    26    1
    23    26    27    1
    24    27    28    1
    25    28    29   am
    26    29    30    2
    27    29    33    1
    28    33    34   ar
    29    34    35    1
    30    34    36   ar
    31    36    37   ar
    32    37    38   ar
    33    38    39   ar
    34    39    40    1
    35    28    31    1
    36    31    32    1
    37     4     5    1
    38     5     6    1
    39     6     7    1
    40    16     8    1
    41     6     1    1
    42    15    10   ar
    43    32    24    1
    44    39    33   ar
@<TRIPOS>MOLECULE
*****
 40 44 0 0 0
SMALL
GASTEIGER

@<TRIPOS>ATOM
      1 N         143.3547  141.0116  159.4749 N.3     1  UNL1       -0.2671
      2 C         144.0837  140.4622  160.6650 C.3     1  UNL1        0.0899
      3 C         143.6060  140.7818  162.0505 C.3     1  UNL1        0.0896
      4 N         142.3992  141.6510  162.2459 N.3     1  UNL1       -0.2728
      5 C         141.6701  142.2005  161.0557 C.3     1  UNL1        0.0882
      6 C         142.1479  141.8809  159.6702 C.3     1  UNL1        0.0739
      7 C         141.4188  142.4304  158.4801 C.3     1  UNL1        0.0188
      8 C         143.2413  139.6671  157.1675 C.3     1  UNL1        0.1382
      9 C         144.0287  139.6828  155.8909 C.3     1  UNL1        0.0573
     10 C         145.1066  140.7175  156.0238 C.ar    1  UNL1       -0.0224
     11 C         146.1828  141.1723  155.0832 C.ar    1  UNL1       -0.0006
     12 C         147.1378  142.2508  155.5014 C.ar    1  UNL1        0.0711
     13 C         147.0165  142.8745  156.8601 C.ar    1  UNL1        0.0036
     14 C         145.9402  142.4197  157.8008 C.ar    1  UNL1       -0.0033
     15 C         144.9853  141.3412  157.3826 C.ar    1  UNL1       -0.0093
     16 C         143.8325  140.6920  158.0894 C.3     1  UNL1        0.1077
     17 C         148.2141  142.7056  154.5607 C.3     1  UNL1        0.4186
     18 F         149.2903  143.1605  153.6201 F       1  UNL1       -0.1659
     19 F         147.4452  143.9647  154.2898 F       1  UNL1       -0.1659
     20 F         148.9830  141.4465  154.8317 F       1  UNL1       -0.1659
     21 O         142.0685  138.7818  157.4691 O.3     1  UNL1       -0.3542
     22 C         142.9716  136.3771  157.0796 C.3     1  UNL1        0.0346
     23 C         141.9505  137.4414  156.8063 C.3     1  UNL1        0.1422
     24 C         141.9214  141.9706  163.6314 C.3     1  UNL1        0.0488
     25 C         141.3058  143.1098  162.8743 C.3     1  UNL1        0.0161
     26 C         142.7030  140.7205  163.9073 C.3     1  UNL1        0.0362
     27 C         142.7931  140.1855  165.3057 C.3     1  UNL1        0.0951
     28 N         142.1016  140.9007  166.4283 N.am    1  UNL1       -0.2759
     29 C         142.1916  140.3658  167.8268 C.2     1  UNL1        0.2513
     30 O         142.9732  139.1156  168.1027 O.2     1  UNL1       -0.2698
     31 C         141.3200  142.1509  166.1524 C.3     1  UNL1        0.0951
     32 C         141.2299  142.6859  164.7540 C.3     1  UNL1        0.0362
     33 C         141.5001  141.0810  168.9494 C.ar    1  UNL1        0.0807
     34 C         140.0424  140.8393  169.2075 C.ar    1  UNL1        0.0666
     35 C         139.2762  139.8823  168.3431 C.3     1  UNL1        0.0523
     36 N         139.3508  141.5545  170.3301 N.ar    1  UNL1       -0.2282
     37 C         140.1169  142.5115  171.1946 C.ar    1  UNL1        0.1982
     38 N         141.5746  142.7532  170.9365 N.ar    1  UNL1       -0.2282
     39 C         142.2662  142.0380  169.8139 C.ar    1  UNL1        0.0666
     40 C         143.7239  142.2798  169.5557 C.3     1  UNL1        0.0523
@<TRIPOS>BOND
     1    22    23    1
     2    23    21    1
     3     8    21    1
     4     8     9    1
     5     9    10    1
     6    10    11   ar
     7    11    12   ar
     8    12    17    1
     9    17    18    1
    10    17    19    1
    11    17    20    1
    12    12    13   ar
    13    13    14   ar
    14    14    15   ar
    15    15    16    1
    16    16     1    1
    17     1     2    1
    18     2     3    1
    19     3     4    1
    20     4    24    1
    21    24    25    1
    22    24    26    1
    23    26    27    1
    24    27    28    1
    25    28    29   am
    26    29    30    2
    27    29    33    1
    28    33    34   ar
    29    34    35    1
    30    34    36   ar
    31    36    37   ar
    32    37    38   ar
    33    38    39   ar
    34    39    40    1
    35    28    31    1
    36    31    32    1
    37     4     5    1
    38     5     6    1
    39     6     7    1
    40    16     8    1
    41     6     1    1
    42    15    10   ar
    43    32    24    1
    44    39    33   ar
@<TRIPOS>MOLECULE
*****
 40 44 0 0 0
SMALL
GASTEIGER

@<TRIPOS>ATOM
      1 N         143.1848  140.4535  159.4132 N.3     1  UNL1       -0.2671
      2 C         144.0874  140.2316  160.5904 C.3     1  UNL1        0.0899
      3 C         143.6435  140.6407  161.9635 C.3     1  UNL1        0.0896
      4 N         142.2969  141.2718  162.1595 N.3     1  UNL1       -0.2728
      5 C         141.3942  141.4938  160.9823 C.3     1  UNL1        0.0882
      6 C         141.8381  141.0847  159.6091 C.3     1  UNL1        0.0739
      7 C         140.9355  141.3066  158.4319 C.3     1  UNL1        0.0188
      8 C         144.4578  140.8679  157.0995 C.3     1  UNL1        0.1382
      9 C         144.6629  140.0723  155.8445 C.3     1  UNL1        0.0573
     10 C         143.9606  138.7572  156.0094 C.ar    1  UNL1       -0.0224
     11 C         143.8206  137.5731  155.0992 C.ar    1  UNL1       -0.0006
     12 C         143.0414  136.3718  155.5460 C.ar    1  UNL1        0.0711
     13 C         142.4022  136.3545  156.9029 C.ar    1  UNL1        0.0036
     14 C         142.5422  137.5386  157.8130 C.ar    1  UNL1       -0.0033
     15 C         143.3214  138.7399  157.3663 C.ar    1  UNL1       -0.0093
     16 C         143.6287  140.0444  158.0400 C.3     1  UNL1        0.1077
     17 C         142.9013  135.1877  154.6358 C.3     1  UNL1        0.4186
     18 F         142.7612  134.0036  153.7257 F       1  UNL1       -0.1659
     19 F         141.9201  135.9498  153.7954 F       1  UNL1       -0.1659
     20 F         143.8825  134.4256  155.4763 F       1  UNL1       -0.1659
     21 O         144.9885  142.2451  157.3671 O.3     1  UNL1       -0.3542
     22 C         147.1360  142.7259  155.9861 C.3     1  UNL1        0.0346
     23 C         146.4648  142.5043  157.3091 C.3     1  UNL1        0.1422
     24 C         141.8530  141.6810  163.5326 C.3     1  UNL1        0.0488
     25 C         141.2523  142.7916  162.7230 C.3     1  UNL1        0.0161
     26 C         142.6080  140.4282  163.8654 C.3     1  UNL1        0.0362
     27 C         142.7104  139.9703  165.2901 C.3     1  UNL1        0.0951
     28 N         142.0579  140.7651  166.3821 N.am    1  UNL1       -0.2759
     29 C         142.1603  140.3073  167.8068 C.2     1  UNL1        0.2513
     30 O         142.9152  139.0545  168.1396 O.2     1  UNL1       -0.2698
     31 C         141.3029  142.0179  166.0493 C.3     1  UNL1        0.0951
     32 C         141.2005  142.4758  164.6247 C.3     1  UNL1        0.0362
     33 C         141.5077  141.1021  168.8988 C.ar    1  UNL1        0.0807
     34 C         140.0592  140.8844  169.2218 C.ar    1  UNL1        0.0666
     35 C         139.2632  139.8720  168.4527 C.3     1  UNL1        0.0523
     36 N         139.4066  141.6792  170.3138 N.ar    1  UNL1       -0.2282
     37 C         140.2026  142.6916  171.0829 C.ar    1  UNL1        0.1982
     38 N         141.6512  142.9093  170.7599 N.ar    1  UNL1       -0.2282
     39 C         142.3038  142.1145  169.6679 C.ar    1  UNL1        0.0666
     40 C         143.7523  142.3321  169.3449 C.3     1  UNL1        0.0523
@<TRIPOS>BOND
     1    22    23    1
     2    23    21    1
     3     8    21    1
     4     8     9    1
     5     9    10    1
     6    10    11   ar
     7    11    12   ar
     8    12    17    1
     9    17    18    1
    10    17    19    1
    11    17    20    1
    12    12    13   ar
    13    13    14   ar
    14    14    15   ar
    15    15    16    1
    16    16     1    1
    17     1     2    1
    18     2     3    1
    19     3     4    1
    20     4    24    1
    21    24    25    1
    22    24    26    1
    23    26    27    1
    24    27    28    1
    25    28    29   am
    26    29    30    2
    27    29    33    1
    28    33    34   ar
    29    34    35    1
    30    34    36   ar
    31    36    37   ar
    32    37    38   ar
    33    38    39   ar
    34    39    40    1
    35    28    31    1
    36    31    32    1
    37     4     5    1
    38     5     6    1
    39     6     7    1
    40    16     8    1
    41     6     1    1
    42    15    10   ar
    43    32    24    1
    44    39    33   ar
@<TRIPOS>MOLECULE
*****
 40 44 0 0 0
SMALL
GASTEIGER

@<TRIPOS>ATOM
      1 N         141.0475  143.6494  159.3910 N.3     1  UNL1       -0.2671
      2 C         142.1530  144.0979  160.3000 C.3     1  UNL1        0.0899
      3 C         141.9845  144.0064  161.7877 C.3     1  UNL1        0.0896
      4 N         140.7104  143.4664  162.3664 N.3     1  UNL1       -0.2728
      5 C         139.6048  143.0178  161.4574 C.3     1  UNL1        0.0882
      6 C         139.7732  143.1093  159.9697 C.3     1  UNL1        0.0739
      7 C         138.6676  142.6608  159.0607 C.3     1  UNL1        0.0188
      8 C         141.8066  142.6853  157.0163 C.3     1  UNL1        0.1382
      9 C         141.7790  143.1962  155.6062 C.3     1  UNL1        0.0573
     10 C         141.1714  144.5675  155.6218 C.ar    1  UNL1       -0.0224
     11 C         140.8901  145.5531  154.5266 C.ar    1  UNL1       -0.0006
     12 C         140.2607  146.8754  154.8512 C.ar    1  UNL1        0.0711
     13 C         139.9127  147.2121  156.2709 C.ar    1  UNL1        0.0036
     14 C         140.1941  146.2265  157.3660 C.ar    1  UNL1       -0.0033
     15 C         140.8234  144.9042  157.0415 C.ar    1  UNL1       -0.0093
     16 C         141.2160  143.7409  157.9033 C.3     1  UNL1        0.1077
     17 C         139.9794  147.8611  153.7560 C.3     1  UNL1        0.4186
     18 F         139.6980  148.8468  152.6609 F       1  UNL1       -0.1659
     19 F         139.2233  148.7214  154.7246 F       1  UNL1       -0.1659
     20 F         140.7354  147.0008  152.7874 F       1  UNL1       -0.1659
     21 O         142.3324  141.3528  157.4612 O.3     1  UNL1       -0.3542
     22 C         140.3129  139.7448  157.1681 C.3     1  UNL1        0.0346
     23 C         141.3951  140.3278  158.0276 C.3     1  UNL1        0.1422
     24 C         140.5419  143.3748  163.8541 C.3     1  UNL1        0.0488
     25 C         139.7025  144.5853  163.5708 C.3     1  UNL1        0.0161
     26 C         141.4398  142.1962  163.6206 C.3     1  UNL1        0.0362
     27 C         141.8778  141.3464  164.7765 C.3     1  UNL1        0.0951
     28 N         141.4178  141.6752  166.1658 N.am    1  UNL1       -0.2759
     29 C         141.8557  140.8254  167.3217 C.2     1  UNL1        0.2513
     30 O         142.7537  139.6467  167.0883 O.2     1  UNL1       -0.2698
     31 C         140.5198  142.8539  166.3993 C.3     1  UNL1        0.0951
     32 C         140.0819  143.7036  165.2435 C.3     1  UNL1        0.0362
     33 C         141.3957  141.1542  168.7111 C.ar    1  UNL1        0.0807
     34 C         142.2709  141.9675  169.6180 C.ar    1  UNL1        0.0666
     35 C         143.6061  142.4520  169.1356 C.3     1  UNL1        0.0523
     36 N         141.8110  142.2964  171.0074 N.ar    1  UNL1       -0.2282
     37 C         140.4759  141.8119  171.4898 C.ar    1  UNL1        0.1982
     38 N         139.6007  140.9986  170.5829 N.ar    1  UNL1       -0.2282
     39 C         140.0606  140.6698  169.1935 C.ar    1  UNL1        0.0666
     40 C         139.1854  139.8565  168.2865 C.3     1  UNL1        0.0523
@<TRIPOS>BOND
     1    22    23    1
     2    23    21    1
     3     8    21    1
     4     8     9    1
     5     9    10    1
     6    10    11   ar
     7    11    12   ar
     8    12    17    1
     9    17    18    1
    10    17    19    1
    11    17    20    1
    12    12    13   ar
    13    13    14   ar
    14    14    15   ar
    15    15    16    1
    16    16     1    1
    17     1     2    1
    18     2     3    1
    19     3     4    1
    20     4    24    1
    21    24    25    1
    22    24    26    1
    23    26    27    1
    24    27    28    1
    25    28    29   am
    26    29    30    2
    27    29    33    1
    28    33    34   ar
    29    34    35    1
    30    34    36   ar
    31    36    37   ar
    32    37    38   ar
    33    38    39   ar
    34    39    40    1
    35    28    31    1
    36    31    32    1
    37     4     5    1
    38     5     6    1
    39     6     7    1
    40    16     8    1
    41     6     1    1
    42    15    10   ar
    43    32    24    1
    44    39    33   ar
@<TRIPOS>MOLECULE
*****
 40 44 0 0 0
SMALL
GASTEIGER

@<TRIPOS>ATOM
      1 N         143.1205  141.7525  159.3143 N.3     1  UNL1       -0.2671
      2 C         142.6309  143.1031  159.7456 C.3     1  UNL1        0.0899
      3 C         142.2045  143.3279  161.1661 C.3     1  UNL1        0.0896
      4 N         142.2676  142.2021  162.1552 N.3     1  UNL1       -0.2728
      5 C         142.7573  140.8514  161.7240 C.3     1  UNL1        0.0882
      6 C         143.1837  140.6266  160.3036 C.3     1  UNL1        0.0739
      7 C         143.6734  139.2760  159.8723 C.3     1  UNL1        0.0188
      8 C         142.7125  140.9130  156.8096 C.3     1  UNL1        0.1382
      9 C         143.5326  140.8835  155.5540 C.3     1  UNL1        0.0573
     10 C         144.8739  141.4800  155.8623 C.ar    1  UNL1       -0.0224
     11 C         146.0884  141.7120  155.0131 C.ar    1  UNL1       -0.0006
     12 C         147.3117  142.3421  155.6100 C.ar    1  UNL1        0.0711
     13 C         147.3206  142.7403  157.0561 C.ar    1  UNL1        0.0036
     14 C         146.1062  142.5082  157.9054 C.ar    1  UNL1       -0.0033
     15 C         144.8828  141.8781  157.3085 C.ar    1  UNL1       -0.0093
     16 C         143.5470  141.5277  157.8939 C.3     1  UNL1        0.1077
     17 C         148.5262  142.5742  154.7607 C.3     1  UNL1        0.4186
     18 F         149.7407  142.8062  153.9115 F       1  UNL1       -0.1659
     19 F         149.3341  141.7056  155.6788 F       1  UNL1       -0.1659
     20 F         147.7184  143.4428  153.8426 F       1  UNL1       -0.1659
     21 O         141.3050  140.4152  156.9553 O.3     1  UNL1       -0.3542
     22 C         140.1894  138.4941  158.3023 C.3     1  UNL1        0.0346
     23 C         141.0441  138.9521  157.1579 C.3     1  UNL1        0.1422
     24 C         141.8412  142.4269  163.5757 C.3     1  UNL1        0.0488
     25 C         141.2043  143.6168  162.9210 C.3     1  UNL1        0.0161
     26 C         142.6262  141.1590  163.7370 C.3     1  UNL1        0.0362
     27 C         142.7637  140.5290  165.0913 C.3     1  UNL1        0.0951
     28 N         142.1160  141.1671  166.2844 N.am    1  UNL1       -0.2759
     29 C         142.2534  140.5372  167.6388 C.2     1  UNL1        0.2513
     30 O         143.0385  139.2692  167.8001 O.2     1  UNL1       -0.2698
     31 C         141.3310  142.4351  166.1231 C.3     1  UNL1        0.0951
     32 C         141.1936  143.0649  164.7688 C.3     1  UNL1        0.0362
     33 C         141.6058  141.1752  168.8319 C.ar    1  UNL1        0.0807
     34 C         142.3966  142.0991  169.7100 C.ar    1  UNL1        0.0666
     35 C         143.8350  142.3849  169.3949 C.3     1  UNL1        0.0523
     36 N         141.7490  142.7371  170.9031 N.ar    1  UNL1       -0.2282
     37 C         140.3106  142.4513  171.2182 C.ar    1  UNL1        0.1982
     38 N         139.5198  141.5274  170.3401 N.ar    1  UNL1       -0.2282
     39 C         140.1673  140.8894  169.1469 C.ar    1  UNL1        0.0666
     40 C         139.3765  139.9655  168.2688 C.3     1  UNL1        0.0523
@<TRIPOS>BOND
     1    22    23    1
     2    23    21    1
     3     8    21    1
     4     8     9    1
     5     9    10    1
     6    10    11   ar
     7    11    12   ar
     8    12    17    1
     9    17    18    1
    10    17    19    1
    11    17    20    1
    12    12    13   ar
    13    13    14   ar
    14    14    15   ar
    15    15    16    1
    16    16     1    1
    17     1     2    1
    18     2     3    1
    19     3     4    1
    20     4    24    1
    21    24    25    1
    22    24    26    1
    23    26    27    1
    24    27    28    1
    25    28    29   am
    26    29    30    2
    27    29    33    1
    28    33    34   ar
    29    34    35    1
    30    34    36   ar
    31    36    37   ar
    32    37    38   ar
    33    38    39   ar
    34    39    40    1
    35    28    31    1
    36    31    32    1
    37     4     5    1
    38     5     6    1
    39     6     7    1
    40    16     8    1
    41     6     1    1
    42    15    10   ar
    43    32    24    1
    44    39    33   ar
@<TRIPOS>MOLECULE
*****
 40 44 0 0 0
SMALL
GASTEIGER

@<TRIPOS>ATOM
      1 N         141.5866  143.2043  159.3171 N.3     1  UNL1       -0.2671
      2 C         142.3724  143.7370  160.4784 C.3     1  UNL1        0.0899
      3 C         142.0457  143.2910  161.8728 C.3     1  UNL1        0.0896
      4 N         140.9332  142.3123  162.1059 N.3     1  UNL1       -0.2728
      5 C         140.1473  141.7795  160.9446 C.3     1  UNL1        0.0882
      6 C         140.4740  142.2255  159.5502 C.3     1  UNL1        0.0739
      7 C         139.6882  141.6928  158.3889 C.3     1  UNL1        0.0188
      8 C         142.9483  143.0432  157.0226 C.3     1  UNL1        0.1382
      9 C         142.9370  143.7994  155.7272 C.3     1  UNL1        0.0573
     10 C         141.8950  144.8739  155.8268 C.ar    1  UNL1       -0.0224
     11 C         141.4406  145.9243  154.8572 C.ar    1  UNL1       -0.0006
     12 C         140.3536  146.8825  155.2445 C.ar    1  UNL1        0.0711
     13 C         139.7209  146.7904  156.6014 C.ar    1  UNL1        0.0036
     14 C         140.1753  145.7400  157.5710 C.ar    1  UNL1       -0.0033
     15 C         141.2624  144.7818  157.1837 C.ar    1  UNL1       -0.0093
     16 C         141.9133  143.6503  157.9227 C.3     1  UNL1        0.1077
     17 C         139.8991  147.9330  154.2749 C.3     1  UNL1        0.4186
     18 F         139.4447  148.9834  153.3053 F       1  UNL1       -0.1659
     19 F         139.1958  148.6544  155.3861 F       1  UNL1       -0.1659
     20 F         140.6025  147.2116  153.1636 F       1  UNL1       -0.1659
     21 O         143.8383  141.8835  157.3588 O.3     1  UNL1       -0.3542
     22 C         146.3454  142.1462  156.7300 C.3     1  UNL1        0.0346
     23 C         144.9966  141.5442  156.4682 C.3     1  UNL1        0.1422
     24 C         140.6065  141.8663  163.5003 C.3     1  UNL1        0.0488
     25 C         139.4141  141.3260  162.7680 C.3     1  UNL1        0.0161
     26 C         141.9123  142.5614  163.7484 C.3     1  UNL1        0.0362
     27 C         142.4774  142.6230  165.1365 C.3     1  UNL1        0.0951
     28 N         141.7367  141.9894  166.2766 N.am    1  UNL1       -0.2759
     29 C         142.3017  142.0509  167.6647 C.2     1  UNL1        0.2513
     30 O         143.6075  142.7461  167.9128 O.2     1  UNL1       -0.2698
     31 C         140.4308  141.2942  166.0285 C.3     1  UNL1        0.0951
     32 C         139.8657  141.2327  164.6405 C.3     1  UNL1        0.0362
     33 C         141.5609  141.4173  168.8048 C.ar    1  UNL1        0.0807
     34 C         140.6109  142.2350  169.6287 C.ar    1  UNL1        0.0666
     35 C         140.4016  143.6863  169.3125 C.3     1  UNL1        0.0523
     36 N         139.8701  141.6015  170.7688 N.ar    1  UNL1       -0.2282
     37 C         140.0793  140.1502  171.0851 C.ar    1  UNL1        0.1982
     38 N         141.0294  139.3324  170.2612 N.ar    1  UNL1       -0.2282
     39 C         141.7702  139.9660  169.1211 C.ar    1  UNL1        0.0666
     40 C         142.7202  139.1483  168.2972 C.3     1  UNL1        0.0523
@<TRIPOS>BOND
     1    22    23    1
     2    23    21    1
     3     8    21    1
     4     8     9    1
     5     9    10    1
     6    10    11   ar
     7    11    12   ar
     8    12    17    1
     9    17    18    1
    10    17    19    1
    11    17    20    1
    12    12    13   ar
    13    13    14   ar
    14    14    15   ar
    15    15    16    1
    16    16     1    1
    17     1     2    1
    18     2     3    1
    19     3     4    1
    20     4    24    1
    21    24    25    1
    22    24    26    1
    23    26    27    1
    24    27    28    1
    25    28    29   am
    26    29    30    2
    27    29    33    1
    28    33    34   ar
    29    34    35    1
    30    34    36   ar
    31    36    37   ar
    32    37    38   ar
    33    38    39   ar
    34    39    40    1
    35    28    31    1
    36    31    32    1
    37     4     5    1
    38     5     6    1
    39     6     7    1
    40    16     8    1
    41     6     1    1
    42    15    10   ar
    43    32    24    1
    44    39    33   ar
