@<TRIPOS>MOLECULE
*****
 22 23 0 0 0
SMALL
GASTEIGER

@<TRIPOS>ATOM
      1 C         141.4883  141.8182  166.6826 C.2     1  UNL1        0.2406
      2 O         140.7586  142.1646  165.4187 O.2     1  UNL1       -0.2733
      3 N         142.8943  141.2994  166.6189 N.am    1  UNL1       -0.2833
      4 H         143.3732  141.0721  167.4485 H       1  UNL1        0.1549
      5 C         143.5706  141.1269  165.2912 C.ar    1  UNL1        0.0423
      6 C         143.4607  139.8234  164.5572 C.ar    1  UNL1       -0.0087
      7 C         142.6745  138.6923  165.1509 C.3     1  UNL1        0.0323
      8 C         144.1371  139.6510  163.2294 C.ar    1  UNL1       -0.0031
      9 C         144.9233  140.7820  162.6357 C.ar    1  UNL1       -0.0006
     10 C         145.0332  142.0856  163.3697 C.ar    1  UNL1       -0.0031
     11 C         144.3568  142.2580  164.6974 C.ar    1  UNL1       -0.0087
     12 C         144.4667  143.5616  165.4314 C.3     1  UNL1        0.0323
     13 N         139.9832  140.8778  168.5801 N.3     1  UNL1       -0.2666
     14 C         139.3070  141.0503  169.9078 C.3     1  UNL1        0.0725
     15 C         139.4595  142.3357  170.6658 C.3     1  UNL1        0.0174
     16 C         140.2882  143.4486  170.0961 C.3     1  UNL1        0.0033
     17 C         140.9645  143.2761  168.7684 C.3     1  UNL1        0.0254
     18 C         140.8120  141.9907  168.0104 C.3     1  UNL1        0.1351
     19 C         139.8307  139.5924  167.8221 C.3     1  UNL1        0.0725
     20 C         138.5910  139.3393  167.0166 C.3     1  UNL1        0.0173
     21 C         138.9477  137.6850  165.0453 C.3     1  UNL1        0.0000
     22 C         138.6944  139.0771  165.5433 C.3     1  UNL1        0.0014
@<TRIPOS>BOND
     1    21    22    1
     2    22    20    1
     3    20    19    1
     4    19    13    1
     5    13    14    1
     6    14    15    1
     7    15    16    1
     8    16    17    1
     9    17    18    1
    10    18     1    1
    11     1     2    2
    12     1     3   am
    13     3     5    1
    14     5     6   ar
    15     6     7    1
    16     6     8   ar
    17     8     9   ar
    18     9    10   ar
    19    10    11   ar
    20    11    12    1
    21    18    13    1
    22    11     5   ar
    23     3     4    1
@<TRIPOS>MOLECULE
*****
 22 23 0 0 0
SMALL
GASTEIGER

@<TRIPOS>ATOM
      1 C         141.4949  141.7268  166.6378 C.2     1  UNL1        0.2406
      2 O         140.7386  142.0045  165.3726 O.2     1  UNL1       -0.2733
      3 N         142.9331  141.3054  166.5748 N.am    1  UNL1       -0.2833
      4 H         143.4295  141.1231  167.4052 H       1  UNL1        0.1549
      5 C         143.6150  141.1617  165.2465 C.ar    1  UNL1        0.0423
      6 C         144.3776  142.3157  164.6662 C.ar    1  UNL1       -0.0087
      7 C         144.4582  143.6134  165.4141 C.3     1  UNL1        0.0323
      8 C         145.0595  142.1719  163.3379 C.ar    1  UNL1       -0.0031
      9 C         144.9789  140.8742  162.5900 C.ar    1  UNL1       -0.0006
     10 C         144.2164  139.7202  163.1703 C.ar    1  UNL1       -0.0031
     11 C         143.5344  139.8639  164.4986 C.ar    1  UNL1       -0.0087
     12 C         142.7719  138.7099  165.0789 C.3     1  UNL1        0.0323
     13 N         139.9339  140.7695  168.4809 N.3     1  UNL1       -0.2666
     14 C         139.2520  140.9132  169.8092 C.3     1  UNL1        0.0725
     15 C         139.4492  142.1579  170.6227 C.3     1  UNL1        0.0174
     16 C         140.3283  143.2589  170.1079 C.3     1  UNL1        0.0033
     17 C         141.0102  143.1152  168.7796 C.3     1  UNL1        0.0254
     18 C         140.8130  141.8705  167.9661 C.3     1  UNL1        0.1351
     19 C         139.7367  139.5248  167.6674 C.3     1  UNL1        0.0725
     20 C         138.4484  139.3064  166.9309 C.3     1  UNL1        0.0173
     21 C         139.1065  137.6655  165.0271 C.3     1  UNL1        0.0000
     22 C         138.4686  138.9472  165.4746 C.3     1  UNL1        0.0014
@<TRIPOS>BOND
     1    21    22    1
     2    22    20    1
     3    20    19    1
     4    19    13    1
     5    13    14    1
     6    14    15    1
     7    15    16    1
     8    16    17    1
     9    17    18    1
    10    18     1    1
    11     1     2    2
    12     1     3   am
    13     3     5    1
    14     5     6   ar
    15     6     7    1
    16     6     8   ar
    17     8     9   ar
    18     9    10   ar
    19    10    11   ar
    20    11    12    1
    21    18    13    1
    22    11     5   ar
    23     3     4    1
@<TRIPOS>MOLECULE
*****
 22 23 0 0 0
SMALL
GASTEIGER

@<TRIPOS>ATOM
      1 C         140.6418  142.4582  165.8663 C.2     1  UNL1        0.2406
      2 O         142.1048  142.7589  165.7272 O.2     1  UNL1       -0.2733
      3 N         140.1246  141.8118  167.1172 N.am    1  UNL1       -0.2833
      4 H         139.1644  141.6145  167.2084 H       1  UNL1        0.1549
      5 C         141.0703  141.4661  168.2289 C.ar    1  UNL1        0.0423
      6 C         141.8916  140.2132  168.1525 C.ar    1  UNL1       -0.0087
      7 C         141.7673  139.3062  166.9644 C.3     1  UNL1        0.0323
      8 C         142.8374  139.8675  169.2644 C.ar    1  UNL1       -0.0031
      9 C         142.9617  140.7745  170.4525 C.ar    1  UNL1       -0.0006
     10 C         142.1404  142.0274  170.5289 C.ar    1  UNL1       -0.0031
     11 C         141.1947  142.3731  169.4171 C.ar    1  UNL1       -0.0087
     12 C         140.3734  143.6260  169.4935 C.3     1  UNL1        0.0323
     13 N         139.3332  141.7704  163.7299 N.3     1  UNL1       -0.2666
     14 C         138.3874  142.1162  162.6182 C.3     1  UNL1        0.0725
     15 C         137.8046  143.4956  162.5311 C.3     1  UNL1        0.0174
     16 C         138.1675  144.5292  163.5557 C.3     1  UNL1        0.0033
     17 C         139.1132  144.1834  164.6674 C.3     1  UNL1        0.0254
     18 C         139.6960  142.8040  164.7545 C.3     1  UNL1        0.1351
     19 C         139.9160  140.3910  163.8169 C.3     1  UNL1        0.0725
     20 C         139.1095  139.2718  164.4058 C.3     1  UNL1        0.0173
     21 C         138.0371  138.7584  166.7159 C.3     1  UNL1        0.0000
     22 C         138.0732  139.5631  165.4505 C.3     1  UNL1        0.0014
@<TRIPOS>BOND
     1    21    22    1
     2    22    20    1
     3    20    19    1
     4    19    13    1
     5    13    14    1
     6    14    15    1
     7    15    16    1
     8    16    17    1
     9    17    18    1
    10    18     1    1
    11     1     2    2
    12     1     3   am
    13     3     5    1
    14     5     6   ar
    15     6     7    1
    16     6     8   ar
    17     8     9   ar
    18     9    10   ar
    19    10    11   ar
    20    11    12    1
    21    18    13    1
    22    11     5   ar
    23     3     4    1
@<TRIPOS>MOLECULE
*****
 22 23 0 0 0
SMALL
GASTEIGER

@<TRIPOS>ATOM
      1 C         140.6978  142.4842  165.8894 C.2     1  UNL1        0.2406
      2 O         142.1671  142.7536  165.7541 O.2     1  UNL1       -0.2733
      3 N         140.1628  141.8545  167.1413 N.am    1  UNL1       -0.2833
      4 H         139.1984  141.6777  167.2301 H       1  UNL1        0.1549
      5 C         141.0972  141.4943  168.2581 C.ar    1  UNL1        0.0423
      6 C         141.2210  142.3938  169.4520 C.ar    1  UNL1       -0.0087
      7 C         140.4104  143.6535  169.5293 C.3     1  UNL1        0.0323
      8 C         142.1554  142.0335  170.5688 C.ar    1  UNL1       -0.0031
      9 C         142.9661  140.7739  170.4915 C.ar    1  UNL1       -0.0006
     10 C         142.8423  139.8744  169.2975 C.ar    1  UNL1       -0.0031
     11 C         141.9079  140.2346  168.1808 C.ar    1  UNL1       -0.0087
     12 C         141.7841  139.3351  166.9868 C.3     1  UNL1        0.0323
     13 N         139.3554  141.8048  163.7712 N.3     1  UNL1       -0.2666
     14 C         138.4209  142.1650  162.6546 C.3     1  UNL1        0.0725
     15 C         137.8944  143.5648  162.5393 C.3     1  UNL1        0.0174
     16 C         138.3023  144.6044  163.5407 C.3     1  UNL1        0.0033
     17 C         139.2367  144.2442  164.6574 C.3     1  UNL1        0.0254
     18 C         139.7633  142.8444  164.7726 C.3     1  UNL1        0.1351
     19 C         139.8819  140.4050  163.8865 C.3     1  UNL1        0.0725
     20 C         138.9956  139.3104  164.4025 C.3     1  UNL1        0.0173
     21 C         138.0390  138.6957  166.7385 C.3     1  UNL1        0.0000
     22 C         138.0446  139.5840  165.5298 C.3     1  UNL1        0.0014
@<TRIPOS>BOND
     1    21    22    1
     2    22    20    1
     3    20    19    1
     4    19    13    1
     5    13    14    1
     6    14    15    1
     7    15    16    1
     8    16    17    1
     9    17    18    1
    10    18     1    1
    11     1     2    2
    12     1     3   am
    13     3     5    1
    14     5     6   ar
    15     6     7    1
    16     6     8   ar
    17     8     9   ar
    18     9    10   ar
    19    10    11   ar
    20    11    12    1
    21    18    13    1
    22    11     5   ar
    23     3     4    1
@<TRIPOS>MOLECULE
*****
 22 23 0 0 0
SMALL
GASTEIGER

@<TRIPOS>ATOM
      1 C         139.7166  139.8961  166.2693 C.2     1  UNL1        0.2406
      2 O         138.9538  139.5740  167.5200 O.2     1  UNL1       -0.2733
      3 N         140.9970  140.6732  166.3508 N.am    1  UNL1       -0.2833
      4 H         141.4976  140.8846  165.5299 H       1  UNL1        0.1549
      5 C         141.5146  141.1282  167.6831 C.ar    1  UNL1        0.0423
      6 C         141.0493  142.4308  168.2634 C.ar    1  UNL1       -0.0087
      7 C         140.0663  143.2784  167.5115 C.3     1  UNL1        0.0323
      8 C         141.5669  142.8858  169.5958 C.ar    1  UNL1       -0.0031
      9 C         142.5499  142.0383  170.3477 C.ar    1  UNL1       -0.0006
     10 C         143.0152  140.7357  169.7674 C.ar    1  UNL1       -0.0031
     11 C         142.4976  140.2807  168.4351 C.ar    1  UNL1       -0.0087
     12 C         142.9629  138.9781  167.8548 C.3     1  UNL1        0.0323
     13 N         138.4494  140.3972  164.0572 N.3     1  UNL1       -0.2666
     14 C         137.9319  139.9422  162.7249 C.3     1  UNL1        0.0725
     15 C         138.1639  138.5310  162.2723 C.3     1  UNL1        0.0174
     16 C         138.9134  137.5749  163.1521 C.3     1  UNL1        0.0033
     17 C         139.4310  138.0299  164.4843 C.3     1  UNL1        0.0254
     18 C         139.1990  139.4411  164.9369 C.3     1  UNL1        0.1351
     19 C         138.2175  141.8084  164.5097 C.3     1  UNL1        0.0725
     20 C         137.4629  142.7629  163.6325 C.3     1  UNL1        0.0173
     21 C         139.0008  144.7030  164.4203 C.3     1  UNL1        0.0000
     22 C         137.8462  144.2126  163.5977 C.3     1  UNL1        0.0014
@<TRIPOS>BOND
     1    21    22    1
     2    22    20    1
     3    20    19    1
     4    19    13    1
     5    13    14    1
     6    14    15    1
     7    15    16    1
     8    16    17    1
     9    17    18    1
    10    18     1    1
    11     1     2    2
    12     1     3   am
    13     3     5    1
    14     5     6   ar
    15     6     7    1
    16     6     8   ar
    17     8     9   ar
    18     9    10   ar
    19    10    11   ar
    20    11    12    1
    21    18    13    1
    22    11     5   ar
    23     3     4    1
@<TRIPOS>MOLECULE
*****
 22 23 0 0 0
SMALL
GASTEIGER

@<TRIPOS>ATOM
      1 C         142.5945  139.6400  166.3493 C.2     1  UNL1        0.2406
      2 O         143.1783  138.8461  167.4801 O.2     1  UNL1       -0.2733
      3 N         141.5836  140.7123  166.6292 N.am    1  UNL1       -0.2833
      4 H         141.2004  141.2334  165.8870 H       1  UNL1        0.1549
      5 C         141.1566  140.9907  168.0400 C.ar    1  UNL1        0.0423
      6 C         139.8590  140.4405  168.5532 C.ar    1  UNL1       -0.0087
      7 C         138.9884  139.6119  167.6558 C.3     1  UNL1        0.0323
      8 C         139.4321  140.7188  169.9640 C.ar    1  UNL1       -0.0031
      9 C         140.3027  141.5474  170.8615 C.ar    1  UNL1       -0.0006
     10 C         141.6003  142.0976  170.3482 C.ar    1  UNL1       -0.0031
     11 C         142.0273  141.8193  168.9375 C.ar    1  UNL1       -0.0087
     12 C         143.3249  142.3695  168.4242 C.3     1  UNL1        0.0323
     13 N         142.2940  138.3338  164.1237 N.3     1  UNL1       -0.2666
     14 C         142.7209  138.0555  162.7129 C.3     1  UNL1        0.0725
     15 C         143.8754  138.8052  162.1170 C.3     1  UNL1        0.0174
     16 C         144.6029  139.8332  162.9319 C.3     1  UNL1        0.0033
     17 C         144.1760  140.1114  164.3426 C.3     1  UNL1        0.0254
     18 C         143.0215  139.3617  164.9385 C.3     1  UNL1        0.1351
     19 C         141.1395  137.5841  164.7196 C.3     1  UNL1        0.0725
     20 C         139.7341  138.0341  164.4508 C.3     1  UNL1        0.0173
     21 C         138.9146  138.4214  162.0159 C.3     1  UNL1        0.0000
     22 C         139.0108  137.5464  163.2305 C.3     1  UNL1        0.0014
@<TRIPOS>BOND
     1    21    22    1
     2    22    20    1
     3    20    19    1
     4    19    13    1
     5    13    14    1
     6    14    15    1
     7    15    16    1
     8    16    17    1
     9    17    18    1
    10    18     1    1
    11     1     2    2
    12     1     3   am
    13     3     5    1
    14     5     6   ar
    15     6     7    1
    16     6     8   ar
    17     8     9   ar
    18     9    10   ar
    19    10    11   ar
    20    11    12    1
    21    18    13    1
    22    11     5   ar
    23     3     4    1
@<TRIPOS>MOLECULE
*****
 22 23 0 0 0
SMALL
GASTEIGER

@<TRIPOS>ATOM
      1 C         141.3268  139.5251  166.0112 C.2     1  UNL1        0.2406
      2 O         142.4563  138.7992  166.6800 O.2     1  UNL1       -0.2733
      3 N         140.7639  140.7698  166.6306 N.am    1  UNL1       -0.2833
      4 H         140.0225  141.2462  166.1916 H       1  UNL1        0.1549
      5 C         141.3304  141.2887  167.9189 C.ar    1  UNL1        0.0423
      6 C         142.6126  142.0672  167.9147 C.ar    1  UNL1       -0.0087
      7 C         143.3282  142.3267  166.6223 C.3     1  UNL1        0.0323
      8 C         143.1791  142.5861  169.2031 C.ar    1  UNL1       -0.0031
      9 C         142.4635  142.3266  170.4955 C.ar    1  UNL1       -0.0006
     10 C         141.1813  141.5481  170.4997 C.ar    1  UNL1       -0.0031
     11 C         140.6148  141.0292  169.2114 C.ar    1  UNL1       -0.0087
     12 C         139.3326  140.2508  169.2156 C.3     1  UNL1        0.0323
     13 N         141.4131  139.3605  163.4197 N.3     1  UNL1       -0.2666
     14 C         140.8465  138.8415  162.1315 C.3     1  UNL1        0.0725
     15 C         139.6270  137.9683  162.1463 C.3     1  UNL1        0.0174
     16 C         138.9740  137.6140  163.4494 C.3     1  UNL1        0.0033
     17 C         139.5407  138.1329  164.7377 C.3     1  UNL1        0.0254
     18 C         140.7602  139.0061  164.7228 C.3     1  UNL1        0.1351
     19 C         142.6327  140.2337  163.4049 C.3     1  UNL1        0.0725
     20 C         143.9969  139.6153  163.3256 C.3     1  UNL1        0.0173
     21 C         145.7512  141.4776  163.7781 C.3     1  UNL1        0.0000
     22 C         145.1204  140.1688  164.1512 C.3     1  UNL1        0.0014
@<TRIPOS>BOND
     1    21    22    1
     2    22    20    1
     3    20    19    1
     4    19    13    1
     5    13    14    1
     6    14    15    1
     7    15    16    1
     8    16    17    1
     9    17    18    1
    10    18     1    1
    11     1     2    2
    12     1     3   am
    13     3     5    1
    14     5     6   ar
    15     6     7    1
    16     6     8   ar
    17     8     9   ar
    18     9    10   ar
    19    10    11   ar
    20    11    12    1
    21    18    13    1
    22    11     5   ar
    23     3     4    1
@<TRIPOS>MOLECULE
*****
 22 23 0 0 0
SMALL
GASTEIGER

@<TRIPOS>ATOM
      1 C         141.3646  139.5195  165.8103 C.2     1  UNL1        0.2406
      2 O         142.4540  138.7439  166.4897 O.2     1  UNL1       -0.2733
      3 N         140.8415  140.7802  166.4325 N.am    1  UNL1       -0.2833
      4 H         140.1265  141.2893  165.9866 H       1  UNL1        0.1549
      5 C         141.4079  141.2653  167.7339 C.ar    1  UNL1        0.0423
      6 C         140.7050  140.9513  169.0213 C.ar    1  UNL1       -0.0087
      7 C         139.4357  140.1522  169.0072 C.3     1  UNL1        0.0323
      8 C         141.2714  141.4365  170.3228 C.ar    1  UNL1       -0.0031
      9 C         142.5407  142.2356  170.3369 C.ar    1  UNL1       -0.0006
     10 C         143.2436  142.5496  169.0495 C.ar    1  UNL1       -0.0031
     11 C         142.6772  142.0645  167.7481 C.ar    1  UNL1       -0.0087
     12 C         143.3802  142.3786  166.4607 C.3     1  UNL1        0.0323
     13 N         141.4426  139.4346  163.2148 N.3     1  UNL1       -0.2666
     14 C         140.8761  138.9495  161.9133 C.3     1  UNL1        0.0725
     15 C         139.6653  138.0642  161.9059 C.3     1  UNL1        0.0174
     16 C         139.0209  137.6640  163.1999 C.3     1  UNL1        0.0033
     17 C         139.5873  138.1491  164.5014 C.3     1  UNL1        0.0254
     18 C         140.7981  139.0344  164.5088 C.3     1  UNL1        0.1351
     19 C         142.6534  140.3200  163.2222 C.3     1  UNL1        0.0725
     20 C         144.0250  139.7153  163.1665 C.3     1  UNL1        0.0173
     21 C         145.8138  141.5044  163.7575 C.3     1  UNL1        0.0000
     22 C         145.1052  140.2212  164.0760 C.3     1  UNL1        0.0014
@<TRIPOS>BOND
     1    21    22    1
     2    22    20    1
     3    20    19    1
     4    19    13    1
     5    13    14    1
     6    14    15    1
     7    15    16    1
     8    16    17    1
     9    17    18    1
    10    18     1    1
    11     1     2    2
    12     1     3   am
    13     3     5    1
    14     5     6   ar
    15     6     7    1
    16     6     8   ar
    17     8     9   ar
    18     9    10   ar
    19    10    11   ar
    20    11    12    1
    21    18    13    1
    22    11     5   ar
    23     3     4    1
@<TRIPOS>MOLECULE
*****
 22 23 0 0 0
SMALL
GASTEIGER

@<TRIPOS>ATOM
      1 C         142.4669  141.7344  166.0677 C.2     1  UNL1        0.2406
      2 O         141.4976  142.8789  166.0852 O.2     1  UNL1       -0.2733
      3 N         142.6052  140.8501  167.2714 N.am    1  UNL1       -0.2833
      4 H         143.2414  140.0989  167.2598 H       1  UNL1        0.1549
      5 C         141.7740  141.1103  168.4926 C.ar    1  UNL1        0.0423
      6 C         142.3644  141.8459  169.6589 C.ar    1  UNL1       -0.0087
      7 C         143.7860  142.3213  169.6040 C.3     1  UNL1        0.0323
      8 C         141.5331  142.1060  170.8802 C.ar    1  UNL1       -0.0031
      9 C         140.1116  141.6306  170.9351 C.ar    1  UNL1       -0.0006
     10 C         139.5212  140.8950  169.7687 C.ar    1  UNL1       -0.0031
     11 C         140.3523  140.6349  168.5475 C.ar    1  UNL1       -0.0087
     12 C         139.7619  139.8993  167.3812 C.3     1  UNL1        0.0323
     13 N         142.8947  140.4010  163.8793 N.3     1  UNL1       -0.2666
     14 C         143.7259  140.1408  162.6581 C.3     1  UNL1        0.0725
     15 C         144.9606  140.9538  162.4041 C.3     1  UNL1        0.0174
     16 C         145.3641  142.0270  163.3712 C.3     1  UNL1        0.0033
     17 C         144.5329  142.2872  164.5924 C.3     1  UNL1        0.0254
     18 C         143.2982  141.4742  164.8464 C.3     1  UNL1        0.1351
     19 C         141.6599  139.5880  164.1333 C.3     1  UNL1        0.0725
     20 C         141.7760  138.2080  164.7095 C.3     1  UNL1        0.0173
     21 C         139.2389  137.7881  164.3393 C.3     1  UNL1        0.0000
     22 C         140.6129  137.2637  164.6345 C.3     1  UNL1        0.0014
@<TRIPOS>BOND
     1    21    22    1
     2    22    20    1
     3    20    19    1
     4    19    13    1
     5    13    14    1
     6    14    15    1
     7    15    16    1
     8    16    17    1
     9    17    18    1
    10    18     1    1
    11     1     2    2
    12     1     3   am
    13     3     5    1
    14     5     6   ar
    15     6     7    1
    16     6     8   ar
    17     8     9   ar
    18     9    10   ar
    19    10    11   ar
    20    11    12    1
    21    18    13    1
    22    11     5   ar
    23     3     4    1
