@<TRIPOS>MOLECULE
*****
 18 20 0 0 0
SMALL
GASTEIGER

@<TRIPOS>ATOM
      1 C         139.1969  138.1907  165.4170 C.3     1  UNL1        0.0896
      2 N         139.0622  139.6741  165.2400 N.3     1  UNL1       -0.2712
      3 C         138.0896  140.3692  164.3340 C.3     1  UNL1        0.0725
      4 C         138.3027  141.8476  164.4719 C.3     1  UNL1        0.0210
      5 C         137.6338  143.0229  163.8229 C.3     1  UNL1        0.0017
      6 C         138.0693  144.4169  164.1652 C.3     1  UNL1        0.0001
      7 C         139.1737  144.6355  165.1565 C.3     1  UNL1        0.0004
      8 C         139.8425  143.4601  165.8055 C.3     1  UNL1        0.0054
      9 C         139.4070  142.0662  165.4632 C.3     1  UNL1        0.0349
     10 C         139.8764  140.7229  165.9379 C.3     1  UNL1        0.0762
     11 C         140.5194  142.1285  166.4675 C.ar    1  UNL1       -0.0206
     12 C         141.9458  142.1694  166.0053 C.ar    1  UNL1       -0.0033
     13 C         143.0581  142.2318  167.0096 C.ar    1  UNL1        0.0119
     14 C         142.7441  142.2532  168.4762 C.ar    1  UNL1        0.0682
     15 CL        143.8565  142.3156  169.4806 Cl      1  UNL1       -0.0814
     16 C         141.3178  142.2123  168.9385 C.ar    1  UNL1        0.0679
     17 CL        141.0037  142.2338  170.4052 Cl      1  UNL1       -0.0814
     18 C         140.2054  142.1500  167.9341 C.ar    1  UNL1        0.0080
@<TRIPOS>BOND
     1     1     2    1
     2     2     3    1
     3     4     3    1
     4     4     5    1
     5     5     6    1
     6     6     7    1
     7     7     8    1
     8     8     9    1
     9     9    11    1
    10    11    12   ar
    11    12    13   ar
    12    13    14   ar
    13    14    15    1
    14    14    16   ar
    15    16    17    1
    16    16    18   ar
    17     9    10    1
    18    10     2    1
    19     9     4    1
    20    18    11   ar
@<TRIPOS>MOLECULE
*****
 18 20 0 0 0
SMALL
GASTEIGER

@<TRIPOS>ATOM
      1 C         138.9174  138.8404  164.3558 C.3     1  UNL1        0.0896
      2 N         139.2255  139.6139  165.6035 N.3     1  UNL1       -0.2712
      3 C         138.8456  139.2214  167.0005 C.3     1  UNL1        0.0725
      4 C         139.3528  140.2806  167.9338 C.3     1  UNL1        0.0210
      5 C         139.2729  140.4269  169.4244 C.3     1  UNL1        0.0017
      6 C         139.8864  141.6202  170.0948 C.3     1  UNL1        0.0001
      7 C         140.5798  142.6673  169.2746 C.3     1  UNL1        0.0004
      8 C         140.6597  142.5210  167.7839 C.3     1  UNL1        0.0054
      9 C         140.0462  141.3277  167.1135 C.3     1  UNL1        0.0349
     10 C         139.9675  140.9156  165.6733 C.3     1  UNL1        0.0762
     11 C         140.7036  142.2882  166.1673 C.ar    1  UNL1       -0.0206
     12 C         139.8821  143.3248  165.4598 C.ar    1  UNL1       -0.0033
     13 C         140.5395  144.2852  164.5136 C.ar    1  UNL1        0.0119
     14 C         142.0184  144.2091  164.2749 C.ar    1  UNL1        0.0682
     15 CL        142.6757  145.1696  163.3287 Cl      1  UNL1       -0.0814
     16 C         142.8399  143.1726  164.9823 C.ar    1  UNL1        0.0679
     17 CL        144.3189  143.0964  164.7436 Cl      1  UNL1       -0.0814
     18 C         142.1825  142.2121  165.9285 C.ar    1  UNL1        0.0080
@<TRIPOS>BOND
     1     1     2    1
     2     2     3    1
     3     4     3    1
     4     4     5    1
     5     5     6    1
     6     6     7    1
     7     7     8    1
     8     8     9    1
     9     9    11    1
    10    11    12   ar
    11    12    13   ar
    12    13    14   ar
    13    14    15    1
    14    14    16   ar
    15    16    17    1
    16    16    18   ar
    17     9    10    1
    18    10     2    1
    19     9     4    1
    20    18    11   ar
@<TRIPOS>MOLECULE
*****
 18 20 0 0 0
SMALL
GASTEIGER

@<TRIPOS>ATOM
      1 C         137.7583  144.0130  164.2147 C.3     1  UNL1        0.0896
      2 N         139.2042  143.7692  164.5308 N.3     1  UNL1       -0.2712
      3 C         140.3759  144.2579  163.7319 C.3     1  UNL1        0.0725
      4 C         141.6282  143.7847  164.4087 C.3     1  UNL1        0.0210
      5 C         143.0792  143.9641  164.0738 C.3     1  UNL1        0.0017
      6 C         144.1325  143.3624  164.9562 C.3     1  UNL1        0.0001
      7 C         143.7347  142.5813  166.1733 C.3     1  UNL1        0.0004
      8 C         142.2836  142.4018  166.5082 C.3     1  UNL1        0.0054
      9 C         141.2304  143.0035  165.6259 C.3     1  UNL1        0.0349
     10 C         139.7323  142.9940  165.7013 C.3     1  UNL1        0.0762
     11 C         140.6836  142.2521  166.8033 C.ar    1  UNL1       -0.0206
     12 C         140.2587  140.8219  166.6488 C.ar    1  UNL1       -0.0033
     13 C         139.7120  140.0705  167.8263 C.ar    1  UNL1        0.0119
     14 C         139.5901  140.7494  169.1583 C.ar    1  UNL1        0.0682
     15 CL        139.0433  139.9980  170.3358 Cl      1  UNL1       -0.0814
     16 C         140.0149  142.1796  169.3129 C.ar    1  UNL1        0.0679
     17 CL        139.8930  142.8585  170.6449 Cl      1  UNL1       -0.0814
     18 C         140.5617  142.9310  168.1354 C.ar    1  UNL1        0.0080
@<TRIPOS>BOND
     1     1     2    1
     2     2     3    1
     3     4     3    1
     4     4     5    1
     5     5     6    1
     6     6     7    1
     7     7     8    1
     8     8     9    1
     9     9    11    1
    10    11    12   ar
    11    12    13   ar
    12    13    14   ar
    13    14    15    1
    14    14    16   ar
    15    16    17    1
    16    16    18   ar
    17     9    10    1
    18    10     2    1
    19     9     4    1
    20    18    11   ar
@<TRIPOS>MOLECULE
*****
 18 20 0 0 0
SMALL
GASTEIGER

@<TRIPOS>ATOM
      1 C         143.7380  145.0202  164.0187 C.3     1  UNL1        0.0896
      2 N         143.7019  143.5761  164.4228 N.3     1  UNL1       -0.2712
      3 C         144.3347  142.4366  163.6802 C.3     1  UNL1        0.0725
      4 C         144.0506  141.1742  164.4389 C.3     1  UNL1        0.0210
      5 C         144.4236  139.7440  164.1831 C.3     1  UNL1        0.0017
      6 C         143.9882  138.6730  165.1388 C.3     1  UNL1        0.0001
      7 C         143.1800  139.0322  166.3502 C.3     1  UNL1        0.0004
      8 C         142.8070  140.4624  166.6060 C.3     1  UNL1        0.0054
      9 C         143.2424  141.5334  165.6503 C.3     1  UNL1        0.0349
     10 C         143.0269  143.0178  165.6404 C.3     1  UNL1        0.0762
     11 C         142.4423  142.0415  166.8130 C.ar    1  UNL1       -0.0206
     12 C         140.9770  142.3187  166.6511 C.ar    1  UNL1       -0.0033
     13 C         140.1770  142.8268  167.8137 C.ar    1  UNL1        0.0119
     14 C         140.8421  143.0578  169.1381 C.ar    1  UNL1        0.0682
     15 CL        140.0420  143.5660  170.3007 Cl      1  UNL1       -0.0814
     16 C         142.3073  142.7807  169.3000 C.ar    1  UNL1        0.0679
     17 CL        142.9726  143.0118  170.6245 Cl      1  UNL1       -0.0814
     18 C         143.1074  142.2726  168.1374 C.ar    1  UNL1        0.0080
@<TRIPOS>BOND
     1     1     2    1
     2     2     3    1
     3     4     3    1
     4     4     5    1
     5     5     6    1
     6     6     7    1
     7     7     8    1
     8     8     9    1
     9     9    11    1
    10    11    12   ar
    11    12    13   ar
    12    13    14   ar
    13    14    15    1
    14    14    16   ar
    15    16    17    1
    16    16    18   ar
    17     9    10    1
    18    10     2    1
    19     9     4    1
    20    18    11   ar
@<TRIPOS>MOLECULE
*****
 18 20 0 0 0
SMALL
GASTEIGER

@<TRIPOS>ATOM
      1 C         143.5798  139.0746  164.4305 C.3     1  UNL1        0.0896
      2 N         142.8275  139.3657  165.6951 N.3     1  UNL1       -0.2712
      3 C         143.2249  138.9362  167.0762 C.3     1  UNL1        0.0725
      4 C         142.1887  139.4425  168.0353 C.3     1  UNL1        0.0210
      5 C         142.0561  139.3234  169.5247 C.3     1  UNL1        0.0017
      6 C         140.8857  139.9467  170.2256 C.3     1  UNL1        0.0001
      7 C         139.8478  140.6892  169.4373 C.3     1  UNL1        0.0004
      8 C         139.9803  140.8083  167.9479 C.3     1  UNL1        0.0054
      9 C         141.1508  140.1849  167.2470 C.3     1  UNL1        0.0349
     10 C         141.5456  140.1375  165.8006 C.3     1  UNL1        0.0762
     11 C         140.1972  140.8929  166.3307 C.ar    1  UNL1       -0.0206
     12 C         139.1554  140.1132  165.5846 C.ar    1  UNL1       -0.0033
     13 C         138.2019  140.8211  164.6684 C.ar    1  UNL1        0.0119
     14 C         138.2901  142.3087  164.4982 C.ar    1  UNL1        0.0682
     15 CL        137.3365  143.0167  163.5820 Cl      1  UNL1       -0.0814
     16 C         139.3319  143.0885  165.2442 C.ar    1  UNL1        0.0679
     17 CL        139.4202  144.5763  165.0740 Cl      1  UNL1       -0.0814
     18 C         140.2855  142.3806  166.1605 C.ar    1  UNL1        0.0080
@<TRIPOS>BOND
     1     1     2    1
     2     2     3    1
     3     4     3    1
     4     4     5    1
     5     5     6    1
     6     6     7    1
     7     7     8    1
     8     8     9    1
     9     9    11    1
    10    11    12   ar
    11    12    13   ar
    12    13    14   ar
    13    14    15    1
    14    14    16   ar
    15    16    17    1
    16    16    18   ar
    17     9    10    1
    18    10     2    1
    19     9     4    1
    20    18    11   ar
@<TRIPOS>MOLECULE
*****
 18 20 0 0 0
SMALL
GASTEIGER

@<TRIPOS>ATOM
      1 C         139.0863  143.9811  165.2876 C.3     1  UNL1        0.0896
      2 N         139.1086  142.5087  165.0020 N.3     1  UNL1       -0.2712
      3 C         138.4849  141.8307  163.8182 C.3     1  UNL1        0.0725
      4 C         138.7493  140.3587  163.9346 C.3     1  UNL1        0.0210
      5 C         138.3751  139.1995  163.0594 C.3     1  UNL1        0.0017
      6 C         138.7879  137.8086  163.4399 C.3     1  UNL1        0.0001
      7 C         139.5749  137.5769  164.6956 C.3     1  UNL1        0.0004
      8 C         139.9492  138.7361  165.5708 C.3     1  UNL1        0.0054
      9 C         139.5364  140.1271  165.1903 C.3     1  UNL1        0.0349
     10 C         139.7584  141.4558  165.8500 C.3     1  UNL1        0.0762
     11 C         140.3168  140.0506  166.4690 C.ar    1  UNL1       -0.0206
     12 C         141.8099  139.9122  166.4293 C.ar    1  UNL1       -0.0033
     13 C         142.5902  139.8357  167.7080 C.ar    1  UNL1        0.0119
     14 C         141.8776  139.8975  169.0264 C.ar    1  UNL1        0.0682
     15 CL        142.6580  139.8210  170.3051 Cl      1  UNL1       -0.0814
     16 C         140.3846  140.0359  169.0662 C.ar    1  UNL1        0.0679
     17 CL        139.6719  140.0977  170.3847 Cl      1  UNL1       -0.0814
     18 C         139.6042  140.1124  167.7875 C.ar    1  UNL1        0.0080
@<TRIPOS>BOND
     1     1     2    1
     2     2     3    1
     3     4     3    1
     4     4     5    1
     5     5     6    1
     6     6     7    1
     7     7     8    1
     8     8     9    1
     9     9    11    1
    10    11    12   ar
    11    12    13   ar
    12    13    14   ar
    13    14    15    1
    14    14    16   ar
    15    16    17    1
    16    16    18   ar
    17     9    10    1
    18    10     2    1
    19     9     4    1
    20    18    11   ar
@<TRIPOS>MOLECULE
*****
 18 20 0 0 0
SMALL
GASTEIGER

@<TRIPOS>ATOM
      1 C         144.0192  140.9738  164.9206 C.3     1  UNL1        0.0896
      2 N         142.7260  141.7260  164.8120 N.3     1  UNL1       -0.2712
      3 C         142.5775  143.1802  164.4755 C.3     1  UNL1        0.0725
      4 C         141.1140  143.5091  164.4764 C.3     1  UNL1        0.0210
      5 C         140.3720  144.7860  164.2138 C.3     1  UNL1        0.0017
      6 C         138.8741  144.8119  164.2883 C.3     1  UNL1        0.0001
      7 C         138.1182  143.5610  164.6254 C.3     1  UNL1        0.0004
      8 C         138.8601  142.2841  164.8879 C.3     1  UNL1        0.0054
      9 C         140.3580  142.2581  164.8135 C.3     1  UNL1        0.0349
     10 C         141.3543  141.1562  165.0209 C.3     1  UNL1        0.0762
     11 C         139.7414  140.9354  165.1600 C.ar    1  UNL1       -0.0206
     12 C         139.3623  140.6335  166.5796 C.ar    1  UNL1       -0.0033
     13 C         138.7457  139.3108  166.9262 C.ar    1  UNL1        0.0119
     14 C         138.5081  138.2899  165.8532 C.ar    1  UNL1        0.0682
     15 CL        137.8915  136.9672  166.1998 Cl      1  UNL1       -0.0814
     16 C         138.8871  138.5917  164.4337 C.ar    1  UNL1        0.0679
     17 CL        138.6495  137.5708  163.3606 Cl      1  UNL1       -0.0814
     18 C         139.5038  139.9145  164.0871 C.ar    1  UNL1        0.0080
@<TRIPOS>BOND
     1     1     2    1
     2     2     3    1
     3     4     3    1
     4     4     5    1
     5     5     6    1
     6     6     7    1
     7     7     8    1
     8     8     9    1
     9     9    11    1
    10    11    12   ar
    11    12    13   ar
    12    13    14   ar
    13    14    15    1
    14    14    16   ar
    15    16    17    1
    16    16    18   ar
    17     9    10    1
    18    10     2    1
    19     9     4    1
    20    18    11   ar
@<TRIPOS>MOLECULE
*****
 18 20 0 0 0
SMALL
GASTEIGER

@<TRIPOS>ATOM
      1 C         140.9203  137.5929  164.7759 C.3     1  UNL1        0.0896
      2 N         141.9274  138.6912  164.6038 N.3     1  UNL1       -0.2712
      3 C         143.0322  138.7234  163.5896 C.3     1  UNL1        0.0725
      4 C         143.7942  140.0021  163.7746 C.3     1  UNL1        0.0210
      5 C         144.9832  140.5741  163.0613 C.3     1  UNL1        0.0017
      6 C         145.5385  141.9042  163.4764 C.3     1  UNL1        0.0001
      7 C         144.9046  142.6624  164.6049 C.3     1  UNL1        0.0004
      8 C         143.7155  142.0904  165.3182 C.3     1  UNL1        0.0054
      9 C         143.1603  140.7603  164.9031 C.3     1  UNL1        0.0349
     10 C         142.0066  139.9500  165.4155 C.3     1  UNL1        0.0762
     11 C         142.4247  141.3995  166.0434 C.ar    1  UNL1       -0.0206
     12 C         141.1503  142.1483  165.7881 C.ar    1  UNL1       -0.0033
     13 C         140.4147  142.7875  166.9283 C.ar    1  UNL1        0.0119
     14 C         140.9534  142.6778  168.3239 C.ar    1  UNL1        0.0682
     15 CL        140.2178  143.3170  169.4642 Cl      1  UNL1       -0.0814
     16 C         142.2277  141.9290  168.5793 C.ar    1  UNL1        0.0679
     17 CL        142.7665  141.8193  169.9750 Cl      1  UNL1       -0.0814
     18 C         142.9634  141.2898  167.4390 C.ar    1  UNL1        0.0080
@<TRIPOS>BOND
     1     1     2    1
     2     2     3    1
     3     4     3    1
     4     4     5    1
     5     5     6    1
     6     6     7    1
     7     7     8    1
     8     8     9    1
     9     9    11    1
    10    11    12   ar
    11    12    13   ar
    12    13    14   ar
    13    14    15    1
    14    14    16   ar
    15    16    17    1
    16    16    18   ar
    17     9    10    1
    18    10     2    1
    19     9     4    1
    20    18    11   ar
@<TRIPOS>MOLECULE
*****
 18 20 0 0 0
SMALL
GASTEIGER

@<TRIPOS>ATOM
      1 C         137.8542  138.9521  162.0538 C.3     1  UNL1        0.0896
      2 N         138.1440  140.1934  162.8444 N.3     1  UNL1       -0.2712
      3 C         137.3924  141.4887  162.7590 C.3     1  UNL1        0.0725
      4 C         138.0201  142.4532  163.7211 C.3     1  UNL1        0.0210
      5 C         137.7012  143.8778  164.0658 C.3     1  UNL1        0.0017
      6 C         138.5219  144.6032  165.0905 C.3     1  UNL1        0.0001
      7 C         139.6615  143.9041  165.7706 C.3     1  UNL1        0.0004
      8 C         139.9804  142.4795  165.4259 C.3     1  UNL1        0.0054
      9 C         139.1597  141.7541  164.4012 C.3     1  UNL1        0.0349
     10 C         139.2362  140.3574  163.8594 C.3     1  UNL1        0.0762
     11 C         140.2627  140.9290  164.9949 C.ar    1  UNL1       -0.0206
     12 C         140.0643  140.2530  166.3191 C.ar    1  UNL1       -0.0033
     13 C         141.1673  139.4279  166.9128 C.ar    1  UNL1        0.0119
     14 C         142.4688  139.2788  166.1823 C.ar    1  UNL1        0.0682
     15 CL        143.5719  138.4537  166.7760 Cl      1  UNL1       -0.0814
     16 C         142.6674  139.9548  164.8581 C.ar    1  UNL1        0.0679
     17 CL        143.9690  139.8057  164.1275 Cl      1  UNL1       -0.0814
     18 C         141.5643  140.7799  164.2644 C.ar    1  UNL1        0.0080
@<TRIPOS>BOND
     1     1     2    1
     2     2     3    1
     3     4     3    1
     4     4     5    1
     5     5     6    1
     6     6     7    1
     7     7     8    1
     8     8     9    1
     9     9    11    1
    10    11    12   ar
    11    12    13   ar
    12    13    14   ar
    13    14    15    1
    14    14    16   ar
    15    16    17    1
    16    16    18   ar
    17     9    10    1
    18    10     2    1
    19     9     4    1
    20    18    11   ar
