@<TRIPOS>MOLECULE
*****
 29 31 0 0 0
SMALL
GASTEIGER

@<TRIPOS>ATOM
      1 C         141.6544  142.5075  163.6909 C.ar    1  UNL1        0.0518
      2 C         142.1691  143.5261  164.6643 C.ar    1  UNL1        0.0148
      3 C         142.7147  144.8314  164.1657 C.ar    1  UNL1        0.0025
      4 C         142.7457  145.1180  162.6937 C.ar    1  UNL1        0.0148
      5 C         142.2310  144.0995  161.7203 C.ar    1  UNL1        0.0518
      6 C         141.6854  142.7942  162.2188 C.ar    1  UNL1        0.0293
      7 C         139.6823  141.1104  164.6444 C.2     1  UNL1        0.2524
      8 O         138.8016  142.3238  164.6008 O.2     1  UNL1       -0.2697
      9 N         141.1087  141.2023  164.1894 N.am    1  UNL1       -0.2803
     10 H         141.6868  140.4059  164.2180 H       1  UNL1        0.1552
     11 C         139.4239  138.5373  164.3945 C.ar    1  UNL1        0.1430
     12 C         138.8783  137.2321  164.8931 C.ar    1  UNL1        0.0371
     13 C         138.0454  137.1947  166.1400 C.ar    1  UNL1        0.0031
     14 C         137.7581  138.4625  166.8884 C.ar    1  UNL1        0.0003
     15 C         138.3038  139.7677  166.3899 C.ar    1  UNL1        0.0076
     16 C         139.1367  139.8051  165.1429 C.ar    1  UNL1        0.0876
     17 C         141.5471  137.8124  163.0843 C.3     1  UNL1        0.2525
     18 O         140.2569  138.5747  163.1476 O.3     1  UNL1       -0.4713
     19 N         142.2620  144.3861  160.2483 N.am    1  UNL1       -0.2803
     20 C         141.0878  145.0459  159.5878 C.2     1  UNL1        0.2495
     21 O         139.8828  145.4189  160.3993 O.2     1  UNL1       -0.2698
     22 H         143.0529  144.1413  159.7156 H       1  UNL1        0.1552
     23 C         141.1188  145.3325  158.1158 C.ar    1  UNL1        0.0534
     24 C         142.2040  144.7485  157.2607 C.ar    1  UNL1        0.0045
     25 C         142.2350  145.0352  155.7886 C.ar    1  UNL1       -0.0002
     26 C         141.1808  145.9058  155.1717 C.ar    1  UNL1       -0.0043
     27 C         140.0955  146.4899  156.0269 C.ar    1  UNL1       -0.0217
     28 C         139.0413  147.3606  155.4100 C.3     1  UNL1        0.0310
     29 C         140.0646  146.2032  157.4989 C.ar    1  UNL1        0.0003
@<TRIPOS>BOND
     1    17    18    1
     2    18    11    1
     3    11    12   ar
     4    12    13   ar
     5    13    14   ar
     6    14    15   ar
     7    15    16   ar
     8    16     7    1
     9     7     8    2
    10     7     9   am
    11     9     1    1
    12     1     2   ar
    13     2     3   ar
    14     3     4   ar
    15     4     5   ar
    16     5    19    1
    17    19    20   am
    18    20    21    2
    19    20    23    1
    20    23    24   ar
    21    24    25   ar
    22    25    26   ar
    23    26    27   ar
    24    27    28    1
    25    27    29   ar
    26     5     6   ar
    27    16    11   ar
    28     6     1   ar
    29    29    23   ar
    30     9    10    1
    31    19    22    1
@<TRIPOS>MOLECULE
*****
 29 31 0 0 0
SMALL
GASTEIGER

@<TRIPOS>ATOM
      1 C         140.1157  144.2831  158.5508 C.ar    1  UNL1        0.0518
      2 C         140.8730  143.1198  157.9823 C.ar    1  UNL1        0.0148
      3 C         141.6162  143.2690  156.6879 C.ar    1  UNL1        0.0025
      4 C         141.6020  144.5816  155.9619 C.ar    1  UNL1        0.0148
      5 C         140.8447  145.7449  156.5304 C.ar    1  UNL1        0.0518
      6 C         140.1016  145.5957  157.8248 C.ar    1  UNL1        0.0293
      7 C         140.0943  144.3075  161.1486 C.2     1  UNL1        0.2524
      8 O         141.5591  144.6303  161.1577 O.2     1  UNL1       -0.2697
      9 N         139.3726  144.1340  159.8452 N.am    1  UNL1       -0.2803
     10 H         138.4112  143.9221  159.8392 H       1  UNL1        0.1552
     11 C         138.1979  143.2041  162.5401 C.ar    1  UNL1        0.1430
     12 C         137.4547  143.0549  163.8344 C.ar    1  UNL1        0.0371
     13 C         137.8648  143.8600  165.0318 C.ar    1  UNL1        0.0031
     14 C         139.0181  144.8142  164.9348 C.ar    1  UNL1        0.0003
     15 C         139.7612  144.9634  163.6404 C.ar    1  UNL1        0.0076
     16 C         139.3511  144.1583  162.4431 C.ar    1  UNL1        0.0876
     17 C         137.9988  140.9141  161.3293 C.3     1  UNL1        0.2525
     18 O         137.7878  142.3990  161.3427 O.3     1  UNL1       -0.4713
     19 N         140.8306  147.0575  155.8045 N.am    1  UNL1       -0.2803
     20 C         139.5804  147.5209  155.1170 C.2     1  UNL1        0.2495
     21 O         138.3446  146.6717  155.1555 O.2     1  UNL1       -0.2698
     22 H         141.6417  147.6148  155.7792 H       1  UNL1        0.1552
     23 C         139.5663  148.8334  154.3911 C.ar    1  UNL1        0.0534
     24 C         140.0890  148.9200  152.9878 C.ar    1  UNL1        0.0045
     25 C         140.0748  150.2326  152.2618 C.ar    1  UNL1       -0.0002
     26 C         139.5380  151.4585  152.9391 C.ar    1  UNL1       -0.0043
     27 C         139.0152  151.3719  154.3425 C.ar    1  UNL1       -0.0217
     28 C         138.4784  152.5978  155.0199 C.3     1  UNL1        0.0310
     29 C         139.0294  150.0594  155.0684 C.ar    1  UNL1        0.0003
@<TRIPOS>BOND
     1    17    18    1
     2    18    11    1
     3    11    12   ar
     4    12    13   ar
     5    13    14   ar
     6    14    15   ar
     7    15    16   ar
     8    16     7    1
     9     7     8    2
    10     7     9   am
    11     9     1    1
    12     1     2   ar
    13     2     3   ar
    14     3     4   ar
    15     4     5   ar
    16     5    19    1
    17    19    20   am
    18    20    21    2
    19    20    23    1
    20    23    24   ar
    21    24    25   ar
    22    25    26   ar
    23    26    27   ar
    24    27    28    1
    25    27    29   ar
    26     5     6   ar
    27    16    11   ar
    28     6     1   ar
    29    29    23   ar
    30     9    10    1
    31    19    22    1
@<TRIPOS>MOLECULE
*****
 29 31 0 0 0
SMALL
GASTEIGER

@<TRIPOS>ATOM
      1 C         141.9203  141.2172  161.4523 C.ar    1  UNL1        0.0518
      2 C         142.6759  139.9572  161.1501 C.ar    1  UNL1        0.0148
      3 C         143.1202  139.0623  162.2690 C.ar    1  UNL1        0.0025
      4 C         142.8088  139.4275  163.6901 C.ar    1  UNL1        0.0148
      5 C         142.0532  140.6875  163.9924 C.ar    1  UNL1        0.0518
      6 C         141.6089  141.5824  162.8736 C.ar    1  UNL1        0.0293
      7 C         142.2516  143.3557  160.0147 C.2     1  UNL1        0.2524
      8 O         143.4714  143.7046  160.8148 O.2     1  UNL1       -0.2697
      9 N         141.4760  142.1120  160.3335 N.am    1  UNL1       -0.2803
     10 H         140.6753  141.8830  159.8084 H       1  UNL1        0.1552
     11 C         140.5484  145.0545  159.0332 C.ar    1  UNL1        0.1430
     12 C         140.1041  145.9493  157.9143 C.ar    1  UNL1        0.0371
     13 C         140.9187  146.0401  156.6580 C.ar    1  UNL1        0.0031
     14 C         142.1775  145.2362  156.5207 C.ar    1  UNL1        0.0003
     15 C         142.6218  144.3414  157.6395 C.ar    1  UNL1        0.0076
     16 C         141.8072  144.2506  158.8958 C.ar    1  UNL1        0.0876
     17 C         139.9933  145.9125  161.4218 C.3     1  UNL1        0.2525
     18 O         139.7338  144.9637  160.2895 O.3     1  UNL1       -0.4713
     19 N         141.7418  141.0527  165.4135 N.am    1  UNL1       -0.2803
     20 C         140.4418  140.6279  166.0295 C.2     1  UNL1        0.2495
     21 O         139.4531  139.8378  165.2243 O.2     1  UNL1       -0.2698
     22 H         142.3907  141.5713  165.9420 H       1  UNL1        0.1552
     23 C         140.1304  140.9931  167.4506 C.ar    1  UNL1        0.0534
     24 C         139.4385  140.0067  168.3441 C.ar    1  UNL1        0.0045
     25 C         139.1271  140.3719  169.7653 C.ar    1  UNL1       -0.0002
     26 C         139.5077  141.7234  170.2930 C.ar    1  UNL1       -0.0043
     27 C         140.1996  142.7098  169.3994 C.ar    1  UNL1       -0.0217
     28 C         140.5801  144.0614  169.9271 C.3     1  UNL1        0.0310
     29 C         140.5109  142.3446  167.9783 C.ar    1  UNL1        0.0003
@<TRIPOS>BOND
     1    17    18    1
     2    18    11    1
     3    11    12   ar
     4    12    13   ar
     5    13    14   ar
     6    14    15   ar
     7    15    16   ar
     8    16     7    1
     9     7     8    2
    10     7     9   am
    11     9     1    1
    12     1     2   ar
    13     2     3   ar
    14     3     4   ar
    15     4     5   ar
    16     5    19    1
    17    19    20   am
    18    20    21    2
    19    20    23    1
    20    23    24   ar
    21    24    25   ar
    22    25    26   ar
    23    26    27   ar
    24    27    28    1
    25    27    29   ar
    26     5     6   ar
    27    16    11   ar
    28     6     1   ar
    29    29    23   ar
    30     9    10    1
    31    19    22    1
@<TRIPOS>MOLECULE
*****
 29 31 0 0 0
SMALL
GASTEIGER

@<TRIPOS>ATOM
      1 C         141.5409  142.8442  163.8894 C.ar    1  UNL1        0.0518
      2 C         142.5976  143.4976  164.7299 C.ar    1  UNL1        0.0148
      3 C         143.5975  144.4183  164.0954 C.ar    1  UNL1        0.0025
      4 C         143.5407  144.6857  162.6206 C.ar    1  UNL1        0.0148
      5 C         142.4839  144.0323  161.7801 C.ar    1  UNL1        0.0518
      6 C         141.4840  143.1116  162.4145 C.ar    1  UNL1        0.0293
      7 C         140.8698  140.4716  164.7082 C.2     1  UNL1        0.2524
      8 O         142.1984  139.9405  164.2582 O.2     1  UNL1       -0.2697
      9 N         140.5410  141.9235  164.5238 N.am    1  UNL1       -0.2803
     10 H         139.6690  142.2721  164.8192 H       1  UNL1        0.1552
     11 C         139.2293  139.9233  166.6469 C.ar    1  UNL1        0.1430
     12 C         138.2294  139.0026  167.2812 C.ar    1  UNL1        0.0371
     13 C         137.8700  137.7095  166.6113 C.ar    1  UNL1        0.0031
     14 C         138.5105  137.3371  165.3071 C.ar    1  UNL1        0.0003
     15 C         139.5104  138.2578  164.6727 C.ar    1  UNL1        0.0076
     16 C         139.8698  139.5509  165.3426 C.ar    1  UNL1        0.0876
     17 C         140.5033  141.2163  168.5057 C.3     1  UNL1        0.2525
     18 O         139.5888  141.2164  167.3168 O.3     1  UNL1       -0.4713
     19 N         142.4270  144.2997  160.3052 N.am    1  UNL1       -0.2803
     20 C         141.3013  145.1090  159.7326 C.2     1  UNL1        0.2495
     21 O         140.2326  145.6510  160.6348 O.2     1  UNL1       -0.2698
     22 H         143.1285  143.9439  159.7131 H       1  UNL1        0.1552
     23 C         141.2444  145.3764  158.2577 C.ar    1  UNL1        0.0534
     24 C         142.3043  144.8207  157.3534 C.ar    1  UNL1        0.0045
     25 C         142.2475  145.0880  155.8784 C.ar    1  UNL1       -0.0002
     26 C         141.1307  145.9110  155.3079 C.ar    1  UNL1       -0.0043
     27 C         140.0708  146.4667  156.2123 C.ar    1  UNL1       -0.0217
     28 C         138.9540  147.2897  155.6418 C.3     1  UNL1        0.0310
     29 C         140.1277  146.1994  157.6872 C.ar    1  UNL1        0.0003
@<TRIPOS>BOND
     1    17    18    1
     2    18    11    1
     3    11    12   ar
     4    12    13   ar
     5    13    14   ar
     6    14    15   ar
     7    15    16   ar
     8    16     7    1
     9     7     8    2
    10     7     9   am
    11     9     1    1
    12     1     2   ar
    13     2     3   ar
    14     3     4   ar
    15     4     5   ar
    16     5    19    1
    17    19    20   am
    18    20    21    2
    19    20    23    1
    20    23    24   ar
    21    24    25   ar
    22    25    26   ar
    23    26    27   ar
    24    27    28    1
    25    27    29   ar
    26     5     6   ar
    27    16    11   ar
    28     6     1   ar
    29    29    23   ar
    30     9    10    1
    31    19    22    1
@<TRIPOS>MOLECULE
*****
 29 31 0 0 0
SMALL
GASTEIGER

@<TRIPOS>ATOM
      1 C         140.5729  145.7684  156.8384 C.ar    1  UNL1        0.0518
      2 C         141.0006  144.5629  156.0549 C.ar    1  UNL1        0.0148
      3 C         141.0176  143.2120  156.7067 C.ar    1  UNL1        0.0025
      4 C         140.6070  143.0666  158.1421 C.ar    1  UNL1        0.0148
      5 C         140.1793  144.2721  158.9256 C.ar    1  UNL1        0.0518
      6 C         140.1622  145.6229  158.2738 C.ar    1  UNL1        0.0293
      7 C         139.3869  147.5292  155.3408 C.2     1  UNL1        0.2524
      8 O         138.2349  146.5883  155.1468 O.2     1  UNL1       -0.2697
      9 N         140.5558  147.1192  156.1866 N.am    1  UNL1       -0.2803
     10 H         141.3119  147.7368  156.3140 H       1  UNL1        0.1552
     11 C         138.7561  150.0489  155.4013 C.ar    1  UNL1        0.1430
     12 C         138.7392  151.3997  154.7495 C.ar    1  UNL1        0.0371
     13 C         139.3359  151.5818  153.3855 C.ar    1  UNL1        0.0031
     14 C         139.9496  150.4131  152.6732 C.ar    1  UNL1        0.0003
     15 C         139.9666  149.0623  153.3250 C.ar    1  UNL1        0.0076
     16 C         139.3699  148.8801  154.6890 C.ar    1  UNL1        0.0876
     17 C         138.5367  150.7975  157.8795 C.3     1  UNL1        0.2525
     18 O         138.1594  149.8667  156.7654 O.3     1  UNL1       -0.4713
     19 N         139.7686  144.1267  160.3609 N.am    1  UNL1       -0.2803
     20 C         140.7735  144.3404  161.4539 C.2     1  UNL1        0.2495
     21 O         142.1891  144.6995  161.1115 O.2     1  UNL1       -0.2698
     22 H         138.8395  143.8910  160.5856 H       1  UNL1        0.1552
     23 C         140.3628  144.1950  162.8892 C.ar    1  UNL1        0.0534
     24 C         139.1349  144.8942  163.3924 C.ar    1  UNL1        0.0045
     25 C         138.7242  144.7488  164.8278 C.ar    1  UNL1       -0.0002
     26 C         139.5415  143.9043  165.7599 C.ar    1  UNL1       -0.0043
     27 C         140.7695  143.2051  165.2566 C.ar    1  UNL1       -0.0217
     28 C         141.5868  142.3606  166.1887 C.3     1  UNL1        0.0310
     29 C         141.1801  143.3505  163.8213 C.ar    1  UNL1        0.0003
@<TRIPOS>BOND
     1    17    18    1
     2    18    11    1
     3    11    12   ar
     4    12    13   ar
     5    13    14   ar
     6    14    15   ar
     7    15    16   ar
     8    16     7    1
     9     7     8    2
    10     7     9   am
    11     9     1    1
    12     1     2   ar
    13     2     3   ar
    14     3     4   ar
    15     4     5   ar
    16     5    19    1
    17    19    20   am
    18    20    21    2
    19    20    23    1
    20    23    24   ar
    21    24    25   ar
    22    25    26   ar
    23    26    27   ar
    24    27    28    1
    25    27    29   ar
    26     5     6   ar
    27    16    11   ar
    28     6     1   ar
    29    29    23   ar
    30     9    10    1
    31    19    22    1
@<TRIPOS>MOLECULE
*****
 29 31 0 0 0
SMALL
GASTEIGER

@<TRIPOS>ATOM
      1 C         139.6254  140.4503  161.2732 C.ar    1  UNL1        0.0518
      2 C         139.3752  139.0166  160.9102 C.ar    1  UNL1        0.0148
      3 C         138.9603  138.0366  161.9674 C.ar    1  UNL1        0.0025
      4 C         138.7957  138.4904  163.3876 C.ar    1  UNL1        0.0148
      5 C         139.0459  139.9242  163.7506 C.ar    1  UNL1        0.0518
      6 C         139.4608  140.9041  162.6935 C.ar    1  UNL1        0.0293
      7 C         139.2257  142.6673  159.9789 C.2     1  UNL1        0.2524
      8 O         137.9963  142.9244  160.7989 O.2     1  UNL1       -0.2697
      9 N         140.0402  141.4302  160.2161 N.am    1  UNL1       -0.2803
     10 H         140.8471  141.2615  159.6779 H       1  UNL1        0.1552
     11 C         140.3838  144.8928  159.3038 C.ar    1  UNL1        0.1430
     12 C         140.7987  145.8727  158.2466 C.ar    1  UNL1        0.0371
     13 C         140.4703  145.6069  156.8073 C.ar    1  UNL1        0.0031
     14 C         139.7271  144.3613  156.4252 C.ar    1  UNL1        0.0003
     15 C         139.3122  143.3815  157.4824 C.ar    1  UNL1        0.0076
     16 C         139.6406  143.6472  158.9217 C.ar    1  UNL1        0.0876
     17 C         139.8284  146.0525  161.5613 C.3     1  UNL1        0.2525
     18 O         140.7122  145.1585  160.7430 O.3     1  UNL1       -0.4713
     19 N         138.8813  140.3780  165.1708 N.am    1  UNL1       -0.2803
     20 C         140.0530  140.3522  166.1070 C.2     1  UNL1        0.2495
     21 O         141.3893  139.8726  165.6230 O.2     1  UNL1       -0.2698
     22 H         138.0042  140.6928  165.4884 H       1  UNL1        0.1552
     23 C         139.8884  140.8060  167.5272 C.ar    1  UNL1        0.0534
     24 C         139.2103  139.9151  168.5254 C.ar    1  UNL1        0.0045
     25 C         139.0456  140.3689  169.9456 C.ar    1  UNL1       -0.0002
     26 C         139.5591  141.7137  170.3676 C.ar    1  UNL1       -0.0043
     27 C         140.2373  142.6046  169.3693 C.ar    1  UNL1       -0.0217
     28 C         140.7508  143.9493  169.7913 C.3     1  UNL1        0.0310
     29 C         140.4019  142.1508  167.9491 C.ar    1  UNL1        0.0003
@<TRIPOS>BOND
     1    17    18    1
     2    18    11    1
     3    11    12   ar
     4    12    13   ar
     5    13    14   ar
     6    14    15   ar
     7    15    16   ar
     8    16     7    1
     9     7     8    2
    10     7     9   am
    11     9     1    1
    12     1     2   ar
    13     2     3   ar
    14     3     4   ar
    15     4     5   ar
    16     5    19    1
    17    19    20   am
    18    20    21    2
    19    20    23    1
    20    23    24   ar
    21    24    25   ar
    22    25    26   ar
    23    26    27   ar
    24    27    28    1
    25    27    29   ar
    26     5     6   ar
    27    16    11   ar
    28     6     1   ar
    29    29    23   ar
    30     9    10    1
    31    19    22    1
@<TRIPOS>MOLECULE
*****
 29 31 0 0 0
SMALL
GASTEIGER

@<TRIPOS>ATOM
      1 C         139.9422  143.7049  163.3388 C.ar    1  UNL1        0.0518
      2 C         139.6147  145.1617  163.1953 C.ar    1  UNL1        0.0148
      3 C         139.9626  145.8875  161.9294 C.ar    1  UNL1        0.0025
      4 C         140.6379  145.1565  160.8071 C.ar    1  UNL1        0.0148
      5 C         140.9654  143.6997  160.9506 C.ar    1  UNL1        0.0518
      6 C         140.6175  142.9739  162.2164 C.ar    1  UNL1        0.0293
      7 C         140.6458  142.7460  165.6486 C.2     1  UNL1        0.2524
      8 O         142.0451  143.2385  165.4268 O.2     1  UNL1       -0.2697
      9 N         139.5943  142.9792  164.6045 N.am    1  UNL1       -0.2803
     10 H         138.6759  142.6559  164.7501 H       1  UNL1        0.1552
     11 C         139.6746  140.6573  166.8504 C.ar    1  UNL1        0.1430
     12 C         139.3267  139.9316  168.1162 C.ar    1  UNL1        0.0371
     13 C         139.6021  140.5687  169.4459 C.ar    1  UNL1        0.0031
     14 C         140.2255  141.9315  169.5099 C.ar    1  UNL1        0.0003
     15 C         140.5733  142.6572  168.2441 C.ar    1  UNL1        0.0076
     16 C         140.2979  142.0202  166.9144 C.ar    1  UNL1        0.0876
     17 C         138.6224  138.7390  165.4493 C.3     1  UNL1        0.2525
     18 O         139.3991  140.0203  165.5206 O.3     1  UNL1       -0.4713
     19 N         141.6407  142.9687  159.8283 N.am    1  UNL1       -0.2803
     20 C         143.1346  142.8343  159.8124 C.2     1  UNL1        0.2495
     21 O         143.9532  143.4310  160.9187 O.2     1  UNL1       -0.2698
     22 H         141.1034  142.5771  159.1022 H       1  UNL1        0.1552
     23 C         143.8099  142.1033  158.6901 C.ar    1  UNL1        0.0534
     24 C         143.1901  140.8600  158.1246 C.ar    1  UNL1        0.0045
     25 C         143.8654  140.1289  157.0023 C.ar    1  UNL1       -0.0002
     26 C         145.1605  140.6412  156.4455 C.ar    1  UNL1       -0.0043
     27 C         145.7804  141.8847  157.0110 C.ar    1  UNL1       -0.0217
     28 C         147.0756  142.3970  156.4542 C.3     1  UNL1        0.0310
     29 C         145.1051  142.6157  158.1333 C.ar    1  UNL1        0.0003
@<TRIPOS>BOND
     1    17    18    1
     2    18    11    1
     3    11    12   ar
     4    12    13   ar
     5    13    14   ar
     6    14    15   ar
     7    15    16   ar
     8    16     7    1
     9     7     8    2
    10     7     9   am
    11     9     1    1
    12     1     2   ar
    13     2     3   ar
    14     3     4   ar
    15     4     5   ar
    16     5    19    1
    17    19    20   am
    18    20    21    2
    19    20    23    1
    20    23    24   ar
    21    24    25   ar
    22    25    26   ar
    23    26    27   ar
    24    27    28    1
    25    27    29   ar
    26     5     6   ar
    27    16    11   ar
    28     6     1   ar
    29    29    23   ar
    30     9    10    1
    31    19    22    1
@<TRIPOS>MOLECULE
*****
 29 31 0 0 0
SMALL
GASTEIGER

@<TRIPOS>ATOM
      1 C         141.6307  139.4929  160.0400 C.ar    1  UNL1        0.0518
      2 C         141.7277  140.7594  159.2422 C.ar    1  UNL1        0.0148
      3 C         142.2667  140.7249  157.8428 C.ar    1  UNL1        0.0025
      4 C         142.7088  139.4239  157.2412 C.ar    1  UNL1        0.0148
      5 C         142.6118  138.1574  158.0390 C.ar    1  UNL1        0.0518
      6 C         142.0728  138.1918  159.4384 C.ar    1  UNL1        0.0293
      7 C         139.8251  138.7966  161.7734 C.2     1  UNL1        0.2524
      8 O         139.0974  138.0315  160.7081 O.2     1  UNL1       -0.2697
      9 N         141.0918  139.5273  161.4394 N.am    1  UNL1       -0.2803
     10 H         141.5694  140.0295  162.1386 H       1  UNL1        0.1552
     11 C         138.7592  140.1149  163.7422 C.ar    1  UNL1        0.1430
     12 C         138.2203  140.1494  165.1416 C.ar    1  UNL1        0.0371
     13 C         138.2082  138.9000  165.9716 C.ar    1  UNL1        0.0031
     14 C         138.7351  137.6162  165.4023 C.ar    1  UNL1        0.0003
     15 C         139.2741  137.5818  164.0029 C.ar    1  UNL1        0.0076
     16 C         139.2861  138.8311  163.1729 C.ar    1  UNL1        0.0876
     17 C         137.6193  142.3224  162.9823 C.3     1  UNL1        0.2525
     18 O         138.7712  141.3643  162.9122 O.3     1  UNL1       -0.4713
     19 N         143.0539  136.8564  157.4374 N.am    1  UNL1       -0.2803
     20 C         142.1258  136.0904  156.5418 C.2     1  UNL1        0.2495
     21 O         140.7557  136.6255  156.2478 O.2     1  UNL1       -0.2698
     22 H         143.9531  136.5051  157.6304 H       1  UNL1        0.1552
     23 C         142.5679  134.7894  155.9402 C.ar    1  UNL1        0.0534
     24 C         141.9447  134.3023  154.6657 C.ar    1  UNL1        0.0045
     25 C         142.3868  133.0012  154.0641 C.ar    1  UNL1       -0.0002
     26 C         143.4520  132.1873  154.7370 C.ar    1  UNL1       -0.0043
     27 C         144.0752  132.6745  156.0116 C.ar    1  UNL1       -0.0217
     28 C         145.1404  131.8606  156.6845 C.3     1  UNL1        0.0310
     29 C         143.6331  133.9755  156.6131 C.ar    1  UNL1        0.0003
@<TRIPOS>BOND
     1    17    18    1
     2    18    11    1
     3    11    12   ar
     4    12    13   ar
     5    13    14   ar
     6    14    15   ar
     7    15    16   ar
     8    16     7    1
     9     7     8    2
    10     7     9   am
    11     9     1    1
    12     1     2   ar
    13     2     3   ar
    14     3     4   ar
    15     4     5   ar
    16     5    19    1
    17    19    20   am
    18    20    21    2
    19    20    23    1
    20    23    24   ar
    21    24    25   ar
    22    25    26   ar
    23    26    27   ar
    24    27    28    1
    25    27    29   ar
    26     5     6   ar
    27    16    11   ar
    28     6     1   ar
    29    29    23   ar
    30     9    10    1
    31    19    22    1
@<TRIPOS>MOLECULE
*****
 29 31 0 0 0
SMALL
GASTEIGER

@<TRIPOS>ATOM
      1 C         143.9107  142.5482  161.7430 C.ar    1  UNL1        0.0518
      2 C         145.3329  142.4166  162.2012 C.ar    1  UNL1        0.0148
      3 C         145.6571  141.5968  163.4148 C.ar    1  UNL1        0.0025
      4 C         144.5591  140.9086  164.1702 C.ar    1  UNL1        0.0148
      5 C         143.1368  141.0402  163.7120 C.ar    1  UNL1        0.0518
      6 C         142.8126  141.8600  162.4985 C.ar    1  UNL1        0.0293
      7 C         143.2419  142.6900  159.2365 C.2     1  UNL1        0.2524
      8 O         143.2216  141.1922  159.1571 O.2     1  UNL1       -0.2697
      9 N         143.5865  143.3679  160.5294 N.am    1  UNL1       -0.2803
     10 H         143.5998  144.3510  160.5814 H       1  UNL1        0.1552
     11 C         142.2185  144.8283  158.1733 C.ar    1  UNL1        0.1430
     12 C         141.8943  145.6480  156.9597 C.ar    1  UNL1        0.0371
     13 C         142.2694  145.1493  155.5956 C.ar    1  UNL1        0.0031
     14 C         142.9686  143.8309  155.4452 C.ar    1  UNL1        0.0003
     15 C         143.2928  143.0111  156.6588 C.ar    1  UNL1        0.0076
     16 C         142.9177  143.5098  158.0228 C.ar    1  UNL1        0.0876
     17 C         140.4168  145.2577  159.9952 C.3     1  UNL1        0.2525
     18 O         141.8435  145.3270  159.5373 O.3     1  UNL1       -0.4713
     19 N         142.0388  140.3520  164.4674 N.am    1  UNL1       -0.2803
     20 C         141.2715  141.0965  165.5197 C.2     1  UNL1        0.2495
     21 O         141.6024  142.5291  165.8165 O.2     1  UNL1       -0.2698
     22 H         141.8217  139.4117  164.2726 H       1  UNL1        0.1552
     23 C         140.1735  140.4083  166.2751 C.ar    1  UNL1        0.0534
     24 C         139.2231  139.4989  165.5543 C.ar    1  UNL1        0.0045
     25 C         138.1250  138.8106  166.3097 C.ar    1  UNL1       -0.0002
     26 C         137.9774  139.0318  167.7859 C.ar    1  UNL1       -0.0043
     27 C         138.9279  139.9413  168.5067 C.ar    1  UNL1       -0.0217
     28 C         138.7802  140.1626  169.9830 C.3     1  UNL1        0.0310
     29 C         140.0259  140.6295  167.7513 C.ar    1  UNL1        0.0003
@<TRIPOS>BOND
     1    17    18    1
     2    18    11    1
     3    11    12   ar
     4    12    13   ar
     5    13    14   ar
     6    14    15   ar
     7    15    16   ar
     8    16     7    1
     9     7     8    2
    10     7     9   am
    11     9     1    1
    12     1     2   ar
    13     2     3   ar
    14     3     4   ar
    15     4     5   ar
    16     5    19    1
    17    19    20   am
    18    20    21    2
    19    20    23    1
    20    23    24   ar
    21    24    25   ar
    22    25    26   ar
    23    26    27   ar
    24    27    28    1
    25    27    29   ar
    26     5     6   ar
    27    16    11   ar
    28     6     1   ar
    29    29    23   ar
    30     9    10    1
    31    19    22    1
