@<TRIPOS>MOLECULE
*****
 29 32 0 0 0
SMALL
GASTEIGER

@<TRIPOS>ATOM
      1 C         142.9287  137.6412  160.3346 C.2     1  UNL1        0.0032
      2 C         141.9980  138.2348  159.3190 C.2     1  UNL1        0.0388
      3 C         142.0142  137.7355  157.9046 C.ar    1  UNL1        0.1637
      4 N         143.3037  137.2900  157.2812 N.ar    1  UNL1       -0.2123
      5 C         143.3199  136.7907  155.8669 C.ar    1  UNL1        0.1284
      6 N         144.6094  136.3452  155.2435 N.pl3   1  UNL1       -0.3425
      7 C         142.0465  136.7368  155.0759 C.ar    1  UNL1        0.0489
      8 C         142.0627  136.2375  153.6616 C.ar    1  UNL1        0.0043
      9 C         140.7893  136.1837  152.8706 C.ar    1  UNL1        0.0002
     10 C         139.4998  136.6292  153.4940 C.ar    1  UNL1        0.0015
     11 C         139.4836  137.1285  154.9083 C.ar    1  UNL1        0.0192
     12 C         140.7570  137.1823  155.6993 C.ar    1  UNL1        0.0856
     13 N         140.7408  137.6817  157.1137 N.ar    1  UNL1       -0.2265
     14 H         145.4452  136.3805  155.7626 H       1  UNL1        0.1437
     15 H         144.6201  136.0175  154.3152 H       1  UNL1        0.1437
     16 C         144.0847  139.3709  163.7143 C.ar    1  UNL1        0.1547
     17 C         144.1009  138.8715  162.2999 C.ar    1  UNL1        0.0384
     18 C         142.9126  138.1406  161.7489 C.ar    1  UNL1        0.0032
     19 C         141.7080  137.9089  162.6124 C.ar    1  UNL1        0.0017
     20 C         141.6918  138.4083  164.0267 C.ar    1  UNL1        0.0206
     21 C         142.8802  139.1392  164.5777 C.ar    1  UNL1        0.0994
     22 N         142.8640  139.6386  165.9920 N.ar    1  UNL1       -0.2839
     23 C         143.0444  138.8025  167.2244 C.ar    1  UNL1        0.1826
     24 N         142.9565  139.7088  168.4163 N.ar    1  UNL1       -0.2280
     25 C         142.7217  141.1051  167.9208 C.ar    1  UNL1        0.0786
     26 C         142.5707  142.3296  168.7737 C.3     1  UNL1        0.0538
     27 C         142.6646  141.0616  166.4224 C.ar    1  UNL1        0.0963
     28 C         145.6584  141.4381  163.7031 C.3     1  UNL1        0.2525
     29 O         145.2730  140.1018  164.2653 O.3     1  UNL1       -0.4700
@<TRIPOS>BOND
     1    28    29    1
     2    29    16    1
     3    16    17   ar
     4    17    18   ar
     5    18     1    1
     6     1     2    2
     7     2     3    1
     8     3     4   ar
     9     4     5   ar
    10     5     6    1
    11     5     7   ar
    12     7     8   ar
    13     8     9   ar
    14     9    10   ar
    15    10    11   ar
    16    11    12   ar
    17    12    13   ar
    18    18    19   ar
    19    19    20   ar
    20    20    21   ar
    21    21    22    1
    22    22    23   ar
    23    23    24   ar
    24    24    25   ar
    25    25    26    1
    26    25    27   ar
    27    21    16   ar
    28    27    22   ar
    29    13     3   ar
    30    12     7   ar
    31     6    14    1
    32     6    15    1
@<TRIPOS>MOLECULE
*****
 29 32 0 0 0
SMALL
GASTEIGER

@<TRIPOS>ATOM
      1 C         141.6972  139.3818  164.1301 C.2     1  UNL1        0.0032
      2 C         142.7856  139.3729  165.1621 C.2     1  UNL1        0.0388
      3 C         142.4775  139.7520  166.5804 C.ar    1  UNL1        0.1637
      4 N         142.9439  138.8799  167.7081 N.ar    1  UNL1       -0.2123
      5 C         142.6359  139.2590  169.1263 C.ar    1  UNL1        0.1284
      6 N         143.1023  138.3868  170.2540 N.pl3   1  UNL1       -0.3425
      7 C         141.8614  140.5103  169.4168 C.ar    1  UNL1        0.0489
      8 C         141.5534  140.8895  170.8350 C.ar    1  UNL1        0.0043
      9 C         140.7789  142.1408  171.1255 C.ar    1  UNL1        0.0002
     10 C         140.3125  143.0129  169.9978 C.ar    1  UNL1        0.0015
     11 C         140.6205  142.6338  168.5796 C.ar    1  UNL1        0.0192
     12 C         141.3950  141.3825  168.2891 C.ar    1  UNL1        0.0856
     13 N         141.7031  141.0033  166.8708 N.ar    1  UNL1       -0.2265
     14 H         143.6106  137.5655  170.0634 H       1  UNL1        0.1437
     15 H         142.9002  138.6357  171.1848 H       1  UNL1        0.1437
     16 C         141.2736  138.8005  160.2271 C.ar    1  UNL1        0.1547
     17 C         140.9655  139.1797  161.6454 C.ar    1  UNL1        0.0384
     18 C         142.0053  139.0026  162.7119 C.ar    1  UNL1        0.0032
     19 C         143.3532  138.4463  162.3602 C.ar    1  UNL1        0.0017
     20 C         143.6613  138.0671  160.9420 C.ar    1  UNL1        0.0206
     21 C         142.6215  138.2442  159.8755 C.ar    1  UNL1        0.0994
     22 N         142.9296  137.8650  158.4573 N.ar    1  UNL1       -0.2839
     23 C         143.2819  138.8116  157.3482 C.ar    1  UNL1        0.1826
     24 N         143.5095  138.0043  156.1046 N.ar    1  UNL1       -0.2280
     25 C         143.2980  136.5588  156.4451 C.ar    1  UNL1        0.0786
     26 C         143.4229  135.4025  155.4979 C.3     1  UNL1        0.0538
     27 C         142.9396  136.4728  157.8992 C.ar    1  UNL1        0.0963
     28 C         138.8696  139.4871  159.5204 C.3     1  UNL1        0.2525
     29 O         140.2339  138.9776  159.1606 O.3     1  UNL1       -0.4700
@<TRIPOS>BOND
     1    28    29    1
     2    29    16    1
     3    16    17   ar
     4    17    18   ar
     5    18     1    1
     6     1     2    2
     7     2     3    1
     8     3     4   ar
     9     4     5   ar
    10     5     6    1
    11     5     7   ar
    12     7     8   ar
    13     8     9   ar
    14     9    10   ar
    15    10    11   ar
    16    11    12   ar
    17    12    13   ar
    18    18    19   ar
    19    19    20   ar
    20    20    21   ar
    21    21    22    1
    22    22    23   ar
    23    23    24   ar
    24    24    25   ar
    25    25    26    1
    26    25    27   ar
    27    21    16   ar
    28    27    22   ar
    29    13     3   ar
    30    12     7   ar
    31     6    14    1
    32     6    15    1
@<TRIPOS>MOLECULE
*****
 29 32 0 0 0
SMALL
GASTEIGER

@<TRIPOS>ATOM
      1 C         141.3098  138.1010  161.6887 C.2     1  UNL1        0.0032
      2 C         142.1936  138.5105  160.5481 C.2     1  UNL1        0.0388
      3 C         141.8924  138.0350  159.1576 C.ar    1  UNL1        0.1637
      4 N         140.5779  138.3717  158.5182 N.ar    1  UNL1       -0.2123
      5 C         140.2766  137.8963  157.1279 C.ar    1  UNL1        0.1284
      6 N         138.9621  138.2329  156.4885 N.pl3   1  UNL1       -0.3425
      7 C         141.2898  137.0842  156.3768 C.ar    1  UNL1        0.0489
      8 C         140.9885  136.6088  154.9864 C.ar    1  UNL1        0.0043
      9 C         142.0017  135.7968  154.2354 C.ar    1  UNL1        0.0002
     10 C         143.3161  135.4601  154.8748 C.ar    1  UNL1        0.0015
     11 C         143.6174  135.9355  156.2652 C.ar    1  UNL1        0.0192
     12 C         142.6043  136.7475  157.0162 C.ar    1  UNL1        0.0856
     13 N         142.9055  137.2230  158.4066 N.ar    1  UNL1       -0.2265
     14 H         138.2971  138.7659  156.9814 H       1  UNL1        0.1437
     15 H         138.7644  137.9209  155.5759 H       1  UNL1        0.1437
     16 C         140.7938  139.4625  165.3806 C.ar    1  UNL1        0.1547
     17 C         140.4925  138.9870  163.9902 C.ar    1  UNL1        0.0384
     18 C         141.6111  138.5765  163.0790 C.ar    1  UNL1        0.0032
     19 C         143.0310  138.6414  163.5583 C.ar    1  UNL1        0.0017
     20 C         143.3323  139.1168  164.9487 C.ar    1  UNL1        0.0206
     21 C         142.2137  139.5274  165.8598 C.ar    1  UNL1        0.0994
     22 N         142.5150  140.0028  167.2502 N.ar    1  UNL1       -0.2839
     23 C         142.6788  139.1350  168.4627 C.ar    1  UNL1        0.1826
     24 N         142.9705  140.0253  169.6341 N.ar    1  UNL1       -0.2280
     25 C         142.9869  141.4435  169.1456 C.ar    1  UNL1        0.0786
     26 C         143.2404  142.6617  169.9833 C.3     1  UNL1        0.0538
     27 C         142.7054  141.4296  167.6722 C.ar    1  UNL1        0.0963
     28 C         138.4665  138.9968  166.4373 C.3     1  UNL1        0.2525
     29 O         139.6753  139.8731  166.2918 O.3     1  UNL1       -0.4700
@<TRIPOS>BOND
     1    28    29    1
     2    29    16    1
     3    16    17   ar
     4    17    18   ar
     5    18     1    1
     6     1     2    2
     7     2     3    1
     8     3     4   ar
     9     4     5   ar
    10     5     6    1
    11     5     7   ar
    12     7     8   ar
    13     8     9   ar
    14     9    10   ar
    15    10    11   ar
    16    11    12   ar
    17    12    13   ar
    18    18    19   ar
    19    19    20   ar
    20    20    21   ar
    21    21    22    1
    22    22    23   ar
    23    23    24   ar
    24    24    25   ar
    25    25    26    1
    26    25    27   ar
    27    21    16   ar
    28    27    22   ar
    29    13     3   ar
    30    12     7   ar
    31     6    14    1
    32     6    15    1
@<TRIPOS>MOLECULE
*****
 29 32 0 0 0
SMALL
GASTEIGER

@<TRIPOS>ATOM
      1 C         137.4671  139.8291  160.4115 C.2     1  UNL1        0.0032
      2 C         138.3835  140.4915  159.4259 C.2     1  UNL1        0.0388
      3 C         138.0442  140.4853  157.9648 C.ar    1  UNL1        0.1637
      4 N         139.1251  140.2826  156.9447 N.ar    1  UNL1       -0.2123
      5 C         138.7858  140.2765  155.4836 C.ar    1  UNL1        0.1284
      6 N         139.8667  140.0738  154.4635 N.pl3   1  UNL1       -0.3425
      7 C         137.3656  140.4729  155.0425 C.ar    1  UNL1        0.0489
      8 C         137.0263  140.4668  153.5814 C.ar    1  UNL1        0.0043
      9 C         135.6061  140.6632  153.1405 C.ar    1  UNL1        0.0002
     10 C         134.5253  140.8659  154.1606 C.ar    1  UNL1        0.0015
     11 C         134.8645  140.8720  155.6217 C.ar    1  UNL1        0.0192
     12 C         136.2847  140.6756  156.0626 C.ar    1  UNL1        0.0856
     13 N         136.6240  140.6817  157.5238 N.ar    1  UNL1       -0.2265
     14 H         140.7988  139.9449  154.7529 H       1  UNL1        0.1437
     15 H         139.6440  140.0698  153.5045 H       1  UNL1        0.1437
     16 C         138.8184  138.6522  163.9525 C.ar    1  UNL1        0.1547
     17 C         138.4790  138.6459  162.4914 C.ar    1  UNL1        0.0384
     18 C         137.8064  139.8353  161.8726 C.ar    1  UNL1        0.0032
     19 C         137.4732  141.0310  162.7149 C.ar    1  UNL1        0.0017
     20 C         137.8125  141.0372  164.1760 C.ar    1  UNL1        0.0206
     21 C         138.4852  139.8478  164.7948 C.ar    1  UNL1        0.0994
     22 N         138.8245  139.8539  166.2558 N.ar    1  UNL1       -0.2839
     23 C         138.0464  139.1763  167.3447 C.ar    1  UNL1        0.1826
     24 N         138.7425  139.4424  168.6464 N.ar    1  UNL1       -0.2280
     25 C         139.9509  140.2845  168.3622 C.ar    1  UNL1        0.0786
     26 C         140.9357  140.7844  169.3772 C.3     1  UNL1        0.0538
     27 C         140.0016  140.5388  166.8847 C.ar    1  UNL1        0.0963
     28 C         140.9669  137.2601  164.3957 C.3     1  UNL1        0.2525
     29 O         139.4910  137.4628  164.5713 O.3     1  UNL1       -0.4700
@<TRIPOS>BOND
     1    28    29    1
     2    29    16    1
     3    16    17   ar
     4    17    18   ar
     5    18     1    1
     6     1     2    2
     7     2     3    1
     8     3     4   ar
     9     4     5   ar
    10     5     6    1
    11     5     7   ar
    12     7     8   ar
    13     8     9   ar
    14     9    10   ar
    15    10    11   ar
    16    11    12   ar
    17    12    13   ar
    18    18    19   ar
    19    19    20   ar
    20    20    21   ar
    21    21    22    1
    22    22    23   ar
    23    23    24   ar
    24    24    25   ar
    25    25    26    1
    26    25    27   ar
    27    21    16   ar
    28    27    22   ar
    29    13     3   ar
    30    12     7   ar
    31     6    14    1
    32     6    15    1
@<TRIPOS>MOLECULE
*****
 29 32 0 0 0
SMALL
GASTEIGER

@<TRIPOS>ATOM
      1 C         141.1059  139.6519  159.4320 C.2     1  UNL1        0.0032
      2 C         140.1235  140.7831  159.3597 C.2     1  UNL1        0.0388
      3 C         140.0783  141.8084  160.4537 C.ar    1  UNL1        0.1637
      4 N         141.1419  142.8628  160.5378 N.ar    1  UNL1       -0.2123
      5 C         141.0967  143.8881  161.6317 C.ar    1  UNL1        0.1284
      6 N         142.1603  144.9424  161.7158 N.pl3   1  UNL1       -0.3425
      7 C         139.9879  143.8590  162.6416 C.ar    1  UNL1        0.0489
      8 C         139.9428  144.8843  163.7355 C.ar    1  UNL1        0.0043
      9 C         138.8340  144.8552  164.7454 C.ar    1  UNL1        0.0002
     10 C         137.7704  143.8008  164.6613 C.ar    1  UNL1        0.0015
     11 C         137.8156  142.7755  163.5673 C.ar    1  UNL1        0.0192
     12 C         138.9243  142.8046  162.5575 C.ar    1  UNL1        0.0856
     13 N         138.9695  141.7793  161.4635 N.ar    1  UNL1       -0.2265
     14 H         142.8880  144.9615  161.0530 H       1  UNL1        0.1437
     15 H         142.1307  145.6154  162.4338 H       1  UNL1        0.1437
     16 C         139.9370  137.2133  156.5274 C.ar    1  UNL1        0.1547
     17 C         139.8917  138.2386  157.6214 C.ar    1  UNL1        0.0384
     18 C         141.1510  138.6267  158.3380 C.ar    1  UNL1        0.0032
     19 C         142.4555  137.9895  157.9607 C.ar    1  UNL1        0.0017
     20 C         142.5007  136.9643  156.8667 C.ar    1  UNL1        0.0206
     21 C         141.2414  136.5762  156.1501 C.ar    1  UNL1        0.0994
     22 N         141.2866  135.5510  155.0561 N.ar    1  UNL1       -0.2839
     23 C         141.2924  135.8332  153.5828 C.ar    1  UNL1        0.1826
     24 N         141.3433  134.5202  152.8594 N.ar    1  UNL1       -0.2280
     25 C         141.3688  133.4263  153.8856 C.ar    1  UNL1        0.0786
     26 C         141.4204  131.9540  153.6036 C.3     1  UNL1        0.0538
     27 C         141.3338  134.0634  155.2432 C.ar    1  UNL1        0.0963
     28 C         138.1926  137.6429  154.6505 C.3     1  UNL1        0.2525
     29 O         138.6777  136.8252  155.8108 O.3     1  UNL1       -0.4700
@<TRIPOS>BOND
     1    28    29    1
     2    29    16    1
     3    16    17   ar
     4    17    18   ar
     5    18     1    1
     6     1     2    2
     7     2     3    1
     8     3     4   ar
     9     4     5   ar
    10     5     6    1
    11     5     7   ar
    12     7     8   ar
    13     8     9   ar
    14     9    10   ar
    15    10    11   ar
    16    11    12   ar
    17    12    13   ar
    18    18    19   ar
    19    19    20   ar
    20    20    21   ar
    21    21    22    1
    22    22    23   ar
    23    23    24   ar
    24    24    25   ar
    25    25    26    1
    26    25    27   ar
    27    21    16   ar
    28    27    22   ar
    29    13     3   ar
    30    12     7   ar
    31     6    14    1
    32     6    15    1
@<TRIPOS>MOLECULE
*****
 29 32 0 0 0
SMALL
GASTEIGER

@<TRIPOS>ATOM
      1 C         137.3738  139.7508  160.2459 C.2     1  UNL1        0.0032
      2 C         138.3153  140.2691  159.1995 C.2     1  UNL1        0.0388
      3 C         137.9350  140.2041  157.7499 C.ar    1  UNL1        0.1637
      4 N         138.8890  139.6215  156.7497 N.ar    1  UNL1       -0.2123
      5 C         138.5087  139.5564  155.3002 C.ar    1  UNL1        0.1284
      6 N         139.4627  138.9738  154.2999 N.pl3   1  UNL1       -0.3425
      7 C         137.1744  140.0740  154.8509 C.ar    1  UNL1        0.0489
      8 C         136.7941  140.0090  153.4013 C.ar    1  UNL1        0.0043
      9 C         135.4599  140.5266  152.9521 C.ar    1  UNL1        0.0002
     10 C         134.5059  141.1092  153.9524 C.ar    1  UNL1        0.0015
     11 C         134.8862  141.1742  155.4019 C.ar    1  UNL1        0.0192
     12 C         136.2204  140.6566  155.8511 C.ar    1  UNL1        0.0856
     13 N         136.6008  140.7216  157.3007 N.ar    1  UNL1       -0.2265
     14 H         140.3384  138.6341  154.5948 H       1  UNL1        0.1437
     15 H         139.2131  138.9312  153.3485 H       1  UNL1        0.1437
     16 C         137.9281  141.1494  163.9183 C.ar    1  UNL1        0.1547
     17 C         137.5478  141.0844  162.4688 C.ar    1  UNL1        0.0384
     18 C         137.7542  139.8158  161.6954 C.ar    1  UNL1        0.0032
     19 C         138.3410  138.6123  162.3715 C.ar    1  UNL1        0.0017
     20 C         138.7214  138.6773  163.8210 C.ar    1  UNL1        0.0206
     21 C         138.5149  139.9458  164.5944 C.ar    1  UNL1        0.0994
     22 N         138.8953  140.0109  166.0439 N.ar    1  UNL1       -0.2839
     23 C         138.2997  139.1904  167.1495 C.ar    1  UNL1        0.1826
     24 N         138.9743  139.5802  168.4312 N.ar    1  UNL1       -0.2280
     25 C         139.9869  140.6416  168.1179 C.ar    1  UNL1        0.0786
     26 C         140.8898  141.3180  169.1064 C.3     1  UNL1        0.0538
     27 C         139.9381  140.9077  166.6425 C.ar    1  UNL1        0.0963
     28 C         137.8973  143.7455  164.0157 C.3     1  UNL1        0.2525
     29 O         137.7217  142.4179  164.6917 O.3     1  UNL1       -0.4700
@<TRIPOS>BOND
     1    28    29    1
     2    29    16    1
     3    16    17   ar
     4    17    18   ar
     5    18     1    1
     6     1     2    2
     7     2     3    1
     8     3     4   ar
     9     4     5   ar
    10     5     6    1
    11     5     7   ar
    12     7     8   ar
    13     8     9   ar
    14     9    10   ar
    15    10    11   ar
    16    11    12   ar
    17    12    13   ar
    18    18    19   ar
    19    19    20   ar
    20    20    21   ar
    21    21    22    1
    22    22    23   ar
    23    23    24   ar
    24    24    25   ar
    25    25    26    1
    26    25    27   ar
    27    21    16   ar
    28    27    22   ar
    29    13     3   ar
    30    12     7   ar
    31     6    14    1
    32     6    15    1
@<TRIPOS>MOLECULE
*****
 29 32 0 0 0
SMALL
GASTEIGER

@<TRIPOS>ATOM
      1 C         142.9622  137.1998  158.8894 C.2     1  UNL1        0.0032
      2 C         142.8287  137.1544  157.3961 C.2     1  UNL1        0.0388
      3 C         142.7515  135.8333  156.6898 C.ar    1  UNL1        0.1637
      4 N         143.0457  134.5657  157.4358 N.ar    1  UNL1       -0.2123
      5 C         142.9685  133.2446  156.7296 C.ar    1  UNL1        0.1284
      6 N         143.2627  131.9770  157.4757 N.pl3   1  UNL1       -0.3425
      7 C         142.5969  133.1911  155.2773 C.ar    1  UNL1        0.0489
      8 C         142.5197  131.8700  154.5711 C.ar    1  UNL1        0.0043
      9 C         142.1481  131.8166  153.1189 C.ar    1  UNL1        0.0002
     10 C         141.8539  133.0842  152.3728 C.ar    1  UNL1        0.0015
     11 C         141.9312  134.4052  153.0790 C.ar    1  UNL1        0.0192
     12 C         142.3027  134.4587  154.5313 C.ar    1  UNL1        0.0856
     13 N         142.3799  135.7798  155.2375 N.ar    1  UNL1       -0.2265
     14 H         143.5065  132.0121  158.4289 H       1  UNL1        0.1437
     15 H         143.2120  131.1099  157.0122 H       1  UNL1        0.1437
     16 C         143.3294  139.8878  161.7859 C.ar    1  UNL1        0.1547
     17 C         143.2522  138.5667  161.0797 C.ar    1  UNL1        0.0384
     18 C         143.0395  138.5209  159.5956 C.ar    1  UNL1        0.0032
     19 C         142.9040  139.7963  158.8176 C.ar    1  UNL1        0.0017
     20 C         142.9813  141.1174  159.5238 C.ar    1  UNL1        0.0206
     21 C         143.1940  141.1631  161.0080 C.ar    1  UNL1        0.0994
     22 N         143.2713  142.4842  161.7142 N.ar    1  UNL1       -0.2839
     23 C         144.4954  143.3402  161.8517 C.ar    1  UNL1        0.1826
     24 N         144.1187  144.5663  162.6293 N.ar    1  UNL1       -0.2280
     25 C         142.6618  144.4682  162.9725 C.ar    1  UNL1        0.0786
     26 C         141.8679  145.4792  163.7455 C.3     1  UNL1        0.0538
     27 C         142.1380  143.1813  162.4069 C.ar    1  UNL1        0.0963
     28 C         144.9344  139.9596  163.8277 C.3     1  UNL1        0.2525
     29 O         143.5421  139.9336  163.2700 O.3     1  UNL1       -0.4700
@<TRIPOS>BOND
     1    28    29    1
     2    29    16    1
     3    16    17   ar
     4    17    18   ar
     5    18     1    1
     6     1     2    2
     7     2     3    1
     8     3     4   ar
     9     4     5   ar
    10     5     6    1
    11     5     7   ar
    12     7     8   ar
    13     8     9   ar
    14     9    10   ar
    15    10    11   ar
    16    11    12   ar
    17    12    13   ar
    18    18    19   ar
    19    19    20   ar
    20    20    21   ar
    21    21    22    1
    22    22    23   ar
    23    23    24   ar
    24    24    25   ar
    25    25    26    1
    26    25    27   ar
    27    21    16   ar
    28    27    22   ar
    29    13     3   ar
    30    12     7   ar
    31     6    14    1
    32     6    15    1
@<TRIPOS>MOLECULE
*****
 29 32 0 0 0
SMALL
GASTEIGER

@<TRIPOS>ATOM
      1 C         140.7584  138.1244  160.6585 C.2     1  UNL1        0.0032
      2 C         141.9702  138.4029  159.8196 C.2     1  UNL1        0.0388
      3 C         141.9720  138.0456  158.3627 C.ar    1  UNL1        0.1637
      4 N         143.2719  137.8852  157.6315 N.ar    1  UNL1       -0.2123
      5 C         143.2738  137.5279  156.1747 C.ar    1  UNL1        0.1284
      6 N         144.5736  137.3674  155.4435 N.pl3   1  UNL1       -0.3425
      7 C         141.9758  137.3309  155.4490 C.ar    1  UNL1        0.0489
      8 C         141.9777  136.9736  153.9922 C.ar    1  UNL1        0.0043
      9 C         140.6798  136.7767  153.2667 C.ar    1  UNL1        0.0002
     10 C         139.3799  136.9371  153.9979 C.ar    1  UNL1        0.0015
     11 C         139.3780  137.2944  155.4547 C.ar    1  UNL1        0.0192
     12 C         140.6760  137.4913  156.1802 C.ar    1  UNL1        0.0856
     13 N         140.6741  137.8487  157.6371 N.ar    1  UNL1       -0.2265
     14 H         145.4255  137.4967  155.9197 H       1  UNL1        0.1437
     15 H         144.5749  137.1329  154.4873 H       1  UNL1        0.1437
     16 C         140.6446  140.2749  163.9921 C.ar    1  UNL1        0.1547
     17 C         140.6464  139.9176  162.5353 C.ar    1  UNL1        0.0384
     18 C         140.7566  138.4817  162.1153 C.ar    1  UNL1        0.0032
     19 C         140.8649  137.4032  163.1523 C.ar    1  UNL1        0.0017
     20 C         140.8631  137.7606  164.6091 C.ar    1  UNL1        0.0206
     21 C         140.7530  139.1964  165.0290 C.ar    1  UNL1        0.0994
     22 N         140.7512  139.5537  166.4858 N.ar    1  UNL1       -0.2839
     23 C         141.9605  139.6795  167.3643 C.ar    1  UNL1        0.1826
     24 N         141.4965  140.0515  168.7413 N.ar    1  UNL1       -0.2280
     25 C         140.0003  140.1557  168.7140 C.ar    1  UNL1        0.0786
     26 C         139.1195  140.5059  169.8765 C.3     1  UNL1        0.0538
     27 C         139.5397  139.8480  167.3199 C.ar    1  UNL1        0.0963
     28 C         141.7748  142.5260  164.6286 C.3     1  UNL1        0.2525
     29 O         140.5345  141.7107  164.4121 O.3     1  UNL1       -0.4700
@<TRIPOS>BOND
     1    28    29    1
     2    29    16    1
     3    16    17   ar
     4    17    18   ar
     5    18     1    1
     6     1     2    2
     7     2     3    1
     8     3     4   ar
     9     4     5   ar
    10     5     6    1
    11     5     7   ar
    12     7     8   ar
    13     8     9   ar
    14     9    10   ar
    15    10    11   ar
    16    11    12   ar
    17    12    13   ar
    18    18    19   ar
    19    19    20   ar
    20    20    21   ar
    21    21    22    1
    22    22    23   ar
    23    23    24   ar
    24    24    25   ar
    25    25    26    1
    26    25    27   ar
    27    21    16   ar
    28    27    22   ar
    29    13     3   ar
    30    12     7   ar
    31     6    14    1
    32     6    15    1
@<TRIPOS>MOLECULE
*****
 29 32 0 0 0
SMALL
GASTEIGER

@<TRIPOS>ATOM
      1 C         141.2234  142.3521  163.1832 C.2     1  UNL1        0.0032
      2 C         140.2362  142.5817  164.2890 C.2     1  UNL1        0.0388
      3 C         140.4735  141.9812  165.6429 C.ar    1  UNL1        0.1637
      4 N         139.4920  140.9987  166.2100 N.ar    1  UNL1       -0.2123
      5 C         139.7292  140.3982  167.5639 C.ar    1  UNL1        0.1284
      6 N         138.7478  139.4157  168.1310 N.pl3   1  UNL1       -0.3425
      7 C         140.9479  140.7800  168.3508 C.ar    1  UNL1        0.0489
      8 C         141.1851  140.1795  169.7046 C.ar    1  UNL1        0.0043
      9 C         142.4037  140.5614  170.4914 C.ar    1  UNL1        0.0002
     10 C         143.3851  141.5438  169.9243 C.ar    1  UNL1        0.0015
     11 C         143.1480  142.1444  168.5705 C.ar    1  UNL1        0.0192
     12 C         141.9293  141.7625  167.7837 C.ar    1  UNL1        0.0856
     13 N         141.6921  142.3630  166.4297 N.ar    1  UNL1       -0.2265
     14 H         137.9479  139.1651  167.6146 H       1  UNL1        0.1437
     15 H         138.9035  139.0216  169.0196 H       1  UNL1        0.1437
     16 C         139.4918  143.2327  159.7226 C.ar    1  UNL1        0.1547
     17 C         139.7290  142.6321  161.0765 C.ar    1  UNL1        0.0384
     18 C         140.9862  142.9527  161.8294 C.ar    1  UNL1        0.0032
     19 C         142.0061  143.8739  161.2283 C.ar    1  UNL1        0.0017
     20 C         141.7688  144.4744  159.8744 C.ar    1  UNL1        0.0206
     21 C         140.5116  144.1538  159.1216 C.ar    1  UNL1        0.0994
     22 N         140.2744  144.7544  157.7677 N.ar    1  UNL1       -0.2839
     23 C         140.3442  144.0287  156.4567 C.ar    1  UNL1        0.1826
     24 N         140.0386  145.0119  155.3658 N.ar    1  UNL1       -0.2280
     25 C         139.7799  146.3452  156.0026 C.ar    1  UNL1        0.0786
     26 C         139.4359  147.6148  155.2815 C.3     1  UNL1        0.0538
     27 C         139.9256  146.1861  157.4870 C.ar    1  UNL1        0.0963
     28 C         138.1272  141.6281  158.2016 C.3     1  UNL1        0.2525
     29 O         138.2346  142.9121  158.9697 O.3     1  UNL1       -0.4700
@<TRIPOS>BOND
     1    28    29    1
     2    29    16    1
     3    16    17   ar
     4    17    18   ar
     5    18     1    1
     6     1     2    2
     7     2     3    1
     8     3     4   ar
     9     4     5   ar
    10     5     6    1
    11     5     7   ar
    12     7     8   ar
    13     8     9   ar
    14     9    10   ar
    15    10    11   ar
    16    11    12   ar
    17    12    13   ar
    18    18    19   ar
    19    19    20   ar
    20    20    21   ar
    21    21    22    1
    22    22    23   ar
    23    23    24   ar
    24    24    25   ar
    25    25    26    1
    26    25    27   ar
    27    21    16   ar
    28    27    22   ar
    29    13     3   ar
    30    12     7   ar
    31     6    14    1
    32     6    15    1
