@<TRIPOS>MOLECULE
*****
 31 34 0 0 0
SMALL
GASTEIGER

@<TRIPOS>ATOM
      1 N         138.1772  140.2827  163.1582 N.3     1  UNL1       -0.2724
      2 C         138.0705  141.0772  161.8903 C.3     1  UNL1        0.0721
      3 C         137.8449  142.5131  162.2606 C.3     1  UNL1        0.0187
      4 C         137.8121  142.6062  163.7574 C.3     1  UNL1        0.0178
      5 C         138.0175  141.2277  164.3121 C.3     1  UNL1        0.0721
      6 C         138.4037  138.8031  163.2552 C.3     1  UNL1        0.0768
      7 C         139.2562  138.2454  164.3563 C.3     1  UNL1        0.0438
      8 C         140.7453  138.4217  164.3145 C.ar    1  UNL1       -0.0203
      9 C         141.4986  138.7390  165.5721 C.ar    1  UNL1       -0.0042
     10 C         142.9876  138.9152  165.5303 C.ar    1  UNL1        0.0002
     11 C         143.7233  138.7741  164.2307 C.ar    1  UNL1        0.0067
     12 C         142.9700  138.4567  162.9730 C.ar    1  UNL1        0.0343
     13 BR        143.7057  138.3156  161.6735 Br      1  UNL1       -0.0490
     14 C         141.4810  138.2805  163.0149 C.ar    1  UNL1        0.0025
     15 C         138.6196  137.5116  165.4991 C.3     1  UNL1        0.0474
     16 O         138.7056  139.5218  167.1429 O.co2   1  UNL1       -0.5492
     17 C         138.0312  138.2769  166.6472 C.2     1  UNL1        0.0507
     18 O         136.7685  137.7974  167.2997 O.co2   1  UNL1       -0.5492
     19 C         137.6096  143.8579  164.5587 C.3     1  UNL1        0.0077
     20 C         138.7913  144.5748  165.1414 C.3     1  UNL1        0.0459
     21 C         140.1650  143.9870  165.0093 C.ar    1  UNL1        0.0603
     22 C         140.6977  143.0780  166.0771 C.ar    1  UNL1        0.0145
     23 C         142.0714  142.4902  165.9451 C.ar    1  UNL1       -0.0003
     24 C         142.9125  142.8113  164.7453 C.ar    1  UNL1        0.0092
     25 C         142.3798  143.7203  163.6775 C.ar    1  UNL1        0.1240
     26 N         141.0061  144.3081  163.8096 N.ar    1  UNL1       -0.2356
     27 N         143.2208  144.0414  162.4777 N.pl3   1  UNL1       -0.3184
     28 C         144.5945  143.4536  162.3457 C.3     1  UNL1        0.0885
     29 C         145.1272  142.5447  163.4135 C.3     1  UNL1        0.0260
     30 C         144.2861  142.2235  164.6133 C.3     1  UNL1        0.0309
     31 H         142.8712  144.6380  161.7769 H       1  UNL1        0.1482
@<TRIPOS>UNITY_ATOM_ATTR
16 1
charge -1
@<TRIPOS>BOND
     1    16    17   ar
     2    17    18   ar
     3    17    15    1
     4     7    15    1
     5     7     6    1
     6     6     1    1
     7     1     2    1
     8     2     3    1
     9     3     4    1
    10     4    19    1
    11    19    20    1
    12    20    21    1
    13    21    22   ar
    14    22    23   ar
    15    23    24   ar
    16    24    25   ar
    17    25    26   ar
    18    25    27    1
    19    27    28    1
    20    28    29    1
    21    29    30    1
    22     4     5    1
    23     7     8    1
    24     8     9   ar
    25     9    10   ar
    26    10    11   ar
    27    11    12   ar
    28    12    13    1
    29    12    14   ar
    30     5     1    1
    31    14     8   ar
    32    26    21   ar
    33    30    24    1
    34    27    31    1
@<TRIPOS>MOLECULE
*****
 31 34 0 0 0
SMALL
GASTEIGER

@<TRIPOS>ATOM
      1 N         142.0725  142.4660  165.2866 N.3     1  UNL1       -0.2724
      2 C         142.4624  143.4311  164.2064 C.3     1  UNL1        0.0721
      3 C         141.3495  144.4242  164.0482 C.3     1  UNL1        0.0187
      4 C         140.2717  144.0730  165.0305 C.3     1  UNL1        0.0178
      5 C         140.7186  142.8628  165.7959 C.3     1  UNL1        0.0721
      6 C         142.8925  141.3077  165.7722 C.3     1  UNL1        0.0768
      7 C         142.9273  140.0312  164.9851 C.3     1  UNL1        0.0438
      8 C         141.6684  139.2416  164.7806 C.ar    1  UNL1       -0.0203
      9 C         141.5490  138.3101  163.6111 C.ar    1  UNL1       -0.0042
     10 C         140.2900  137.5206  163.4066 C.ar    1  UNL1        0.0002
     11 C         139.1505  137.6627  164.3717 C.ar    1  UNL1        0.0067
     12 C         139.2699  138.5943  165.5412 C.ar    1  UNL1        0.0343
     13 BR        138.1304  138.7364  166.5063 Br      1  UNL1       -0.0490
     14 C         140.5288  139.3838  165.7457 C.ar    1  UNL1        0.0025
     15 C         144.2210  139.5442  164.4027 C.3     1  UNL1        0.0474
     16 O         144.3638  139.8532  161.8269 O.co2   1  UNL1       -0.5492
     17 C         144.8115  140.2321  163.2076 C.2     1  UNL1        0.0507
     18 O         145.8496  141.2988  163.3931 O.co2   1  UNL1       -0.5492
     19 C         138.9748  144.8036  165.2151 C.3     1  UNL1        0.0077
     20 C         137.7208  144.2773  164.5823 C.3     1  UNL1        0.0459
     21 C         137.8012  143.2015  163.5401 C.ar    1  UNL1        0.0603
     22 C         137.6299  141.7636  163.9316 C.ar    1  UNL1        0.0145
     23 C         137.7103  140.6878  162.8895 C.ar    1  UNL1       -0.0003
     24 C         137.9618  141.0498  161.4556 C.ar    1  UNL1        0.0092
     25 C         138.1330  142.4877  161.0641 C.ar    1  UNL1        0.1240
     26 N         138.0527  143.5635  162.1063 N.ar    1  UNL1       -0.2356
     27 N         138.3846  142.8497  159.6304 N.pl3   1  UNL1       -0.3184
     28 C         138.4649  141.7739  158.5882 C.3     1  UNL1        0.0885
     29 C         138.2937  140.3361  158.9798 C.3     1  UNL1        0.0260
     30 C         138.0421  139.9740  160.4135 C.3     1  UNL1        0.0309
     31 H         138.4969  143.7934  159.3734 H       1  UNL1        0.1482
@<TRIPOS>UNITY_ATOM_ATTR
16 1
charge -1
@<TRIPOS>BOND
     1    16    17   ar
     2    17    18   ar
     3    17    15    1
     4     7    15    1
     5     7     6    1
     6     6     1    1
     7     1     2    1
     8     2     3    1
     9     3     4    1
    10     4    19    1
    11    19    20    1
    12    20    21    1
    13    21    22   ar
    14    22    23   ar
    15    23    24   ar
    16    24    25   ar
    17    25    26   ar
    18    25    27    1
    19    27    28    1
    20    28    29    1
    21    29    30    1
    22     4     5    1
    23     7     8    1
    24     8     9   ar
    25     9    10   ar
    26    10    11   ar
    27    11    12   ar
    28    12    13    1
    29    12    14   ar
    30     5     1    1
    31    14     8   ar
    32    26    21   ar
    33    30    24    1
    34    27    31    1
@<TRIPOS>MOLECULE
*****
 31 34 0 0 0
SMALL
GASTEIGER

@<TRIPOS>ATOM
      1 N         141.6977  142.4844  166.2277 N.3     1  UNL1       -0.2724
      2 C         142.3169  143.0787  164.9973 C.3     1  UNL1        0.0721
      3 C         141.3298  144.0358  164.3977 C.3     1  UNL1        0.0187
      4 C         140.1006  144.0331  165.2574 C.3     1  UNL1        0.0178
      5 C         140.3280  143.0743  166.3883 C.3     1  UNL1        0.0721
      6 C         142.3362  141.4772  167.1375 C.3     1  UNL1        0.0768
      7 C         141.5097  140.3791  167.7384 C.3     1  UNL1        0.0438
      8 C         140.5797  139.5811  166.8732 C.ar    1  UNL1       -0.0203
      9 C         139.1213  139.5009  167.2144 C.ar    1  UNL1       -0.0042
     10 C         138.1914  138.7029  166.3492 C.ar    1  UNL1        0.0002
     11 C         138.7200  137.9852  165.1427 C.ar    1  UNL1        0.0067
     12 C         140.1785  138.0654  164.8015 C.ar    1  UNL1        0.0343
     13 BR        140.7071  137.3477  163.5951 Br      1  UNL1       -0.0490
     14 C         141.1083  138.8634  165.6667 C.ar    1  UNL1        0.0025
     15 C         141.6131  140.0790  169.2044 C.3     1  UNL1        0.0474
     16 O         141.3808  140.9702  171.6338 O.co2   1  UNL1       -0.5492
     17 C         140.9333  140.9693  170.2020 C.2     1  UNL1        0.0507
     18 O         139.8062  141.8587  169.7679 O.co2   1  UNL1       -0.5492
     19 C         138.8615  144.8464  165.0266 C.3     1  UNL1        0.0077
     20 C         137.6327  144.1972  164.4623 C.3     1  UNL1        0.0459
     21 C         137.7616  143.1244  163.4219 C.ar    1  UNL1        0.0603
     22 C         137.6480  141.6812  163.8146 C.ar    1  UNL1        0.0145
     23 C         137.7769  140.6084  162.7742 C.ar    1  UNL1       -0.0003
     24 C         138.0195  140.9788  161.3410 C.ar    1  UNL1        0.0092
     25 C         138.1331  142.4220  160.9483 C.ar    1  UNL1        0.1240
     26 N         138.0041  143.4948  161.9887 N.ar    1  UNL1       -0.2356
     27 N         138.3756  142.7924  159.5151 N.pl3   1  UNL1       -0.3184
     28 C         138.5045  141.7197  158.4747 C.3     1  UNL1        0.0885
     29 C         138.3909  140.2764  158.8675 C.3     1  UNL1        0.0260
     30 C         138.1484  139.9060  160.3006 C.3     1  UNL1        0.0309
     31 H         138.4502  143.7397  159.2573 H       1  UNL1        0.1482
@<TRIPOS>UNITY_ATOM_ATTR
16 1
charge -1
@<TRIPOS>BOND
     1    16    17   ar
     2    17    18   ar
     3    17    15    1
     4     7    15    1
     5     7     6    1
     6     6     1    1
     7     1     2    1
     8     2     3    1
     9     3     4    1
    10     4    19    1
    11    19    20    1
    12    20    21    1
    13    21    22   ar
    14    22    23   ar
    15    23    24   ar
    16    24    25   ar
    17    25    26   ar
    18    25    27    1
    19    27    28    1
    20    28    29    1
    21    29    30    1
    22     4     5    1
    23     7     8    1
    24     8     9   ar
    25     9    10   ar
    26    10    11   ar
    27    11    12   ar
    28    12    13    1
    29    12    14   ar
    30     5     1    1
    31    14     8   ar
    32    26    21   ar
    33    30    24    1
    34    27    31    1
@<TRIPOS>MOLECULE
*****
 31 34 0 0 0
SMALL
GASTEIGER

@<TRIPOS>ATOM
      1 N         140.0663  141.6619  166.7462 N.3     1  UNL1       -0.2724
      2 C         139.2998  141.9539  165.4903 C.3     1  UNL1        0.0721
      3 C         138.4061  140.7823  165.2096 C.3     1  UNL1        0.0187
      4 C         138.6202  139.7663  166.2921 C.3     1  UNL1        0.0178
      5 C         139.6462  140.3099  167.2417 C.3     1  UNL1        0.0721
      6 C         141.0755  142.5636  167.3930 C.3     1  UNL1        0.0768
      7 C         142.4848  142.0905  167.5929 C.3     1  UNL1        0.0438
      8 C         143.1697  141.2987  166.5185 C.ar    1  UNL1       -0.0203
      9 C         143.1586  139.7996  166.5690 C.ar    1  UNL1       -0.0042
     10 C         143.8434  139.0079  165.4946 C.ar    1  UNL1        0.0002
     11 C         144.5393  139.7154  164.3697 C.ar    1  UNL1        0.0067
     12 C         144.5503  141.2144  164.3192 C.ar    1  UNL1        0.0343
     13 BR        145.2461  141.9219  163.1943 Br      1  UNL1       -0.0490
     14 C         143.8655  142.0061  165.3936 C.ar    1  UNL1        0.0025
     15 C         143.2094  142.4090  168.8671 C.3     1  UNL1        0.0474
     16 O         142.0953  142.3604  171.2137 O.co2   1  UNL1       -0.5492
     17 C         142.8684  141.6719  170.1282 C.2     1  UNL1        0.0507
     18 O         143.3006  140.2463  170.3038 O.co2   1  UNL1       -0.5492
     19 C         137.9296  138.4396  166.4050 C.3     1  UNL1        0.0077
     20 C         138.4354  137.2620  165.6257 C.3     1  UNL1        0.0459
     21 C         139.2919  137.4770  164.4131 C.ar    1  UNL1        0.0603
     22 C         140.7784  137.2979  164.5035 C.ar    1  UNL1        0.0145
     23 C         141.6348  137.5129  163.2910 C.ar    1  UNL1       -0.0003
     24 C         141.0048  137.9071  161.9880 C.ar    1  UNL1        0.0092
     25 C         139.5182  138.0862  161.8976 C.ar    1  UNL1        0.1240
     26 N         138.6618  137.8711  163.1102 N.ar    1  UNL1       -0.2356
     27 N         138.8882  138.4803  160.5947 N.pl3   1  UNL1       -0.3184
     28 C         139.7446  138.6953  159.3822 C.3     1  UNL1        0.0885
     29 C         141.2311  138.5162  159.4726 C.3     1  UNL1        0.0260
     30 C         141.8612  138.1221  160.7755 C.3     1  UNL1        0.0309
     31 H         137.9125  138.5978  160.5353 H       1  UNL1        0.1482
@<TRIPOS>UNITY_ATOM_ATTR
16 1
charge -1
@<TRIPOS>BOND
     1    16    17   ar
     2    17    18   ar
     3    17    15    1
     4     7    15    1
     5     7     6    1
     6     6     1    1
     7     1     2    1
     8     2     3    1
     9     3     4    1
    10     4    19    1
    11    19    20    1
    12    20    21    1
    13    21    22   ar
    14    22    23   ar
    15    23    24   ar
    16    24    25   ar
    17    25    26   ar
    18    25    27    1
    19    27    28    1
    20    28    29    1
    21    29    30    1
    22     4     5    1
    23     7     8    1
    24     8     9   ar
    25     9    10   ar
    26    10    11   ar
    27    11    12   ar
    28    12    13    1
    29    12    14   ar
    30     5     1    1
    31    14     8   ar
    32    26    21   ar
    33    30    24    1
    34    27    31    1
@<TRIPOS>MOLECULE
*****
 31 34 0 0 0
SMALL
GASTEIGER

@<TRIPOS>ATOM
      1 N         143.0571  141.4946  166.7468 N.3     1  UNL1       -0.2724
      2 C         143.4627  142.5132  165.7230 C.3     1  UNL1        0.0721
      3 C         144.0735  141.7858  164.5622 C.3     1  UNL1        0.0187
      4 C         144.0456  140.3177  164.8684 C.3     1  UNL1        0.0178
      5 C         143.4174  140.1377  166.2186 C.3     1  UNL1        0.0721
      6 C         142.4057  141.7824  168.0670 C.3     1  UNL1        0.0768
      7 C         140.9276  142.0285  168.1362 C.3     1  UNL1        0.0438
      8 C         139.9982  141.2715  167.2344 C.ar    1  UNL1       -0.0203
      9 C         139.5228  139.9035  167.6252 C.ar    1  UNL1       -0.0042
     10 C         138.5934  139.1466  166.7234 C.ar    1  UNL1        0.0002
     11 C         138.1395  139.7575  165.4308 C.ar    1  UNL1        0.0067
     12 C         138.6149  141.1254  165.0400 C.ar    1  UNL1        0.0343
     13 BR        138.1610  141.7363  163.7474 Br      1  UNL1       -0.0490
     14 C         139.5443  141.8824  165.9418 C.ar    1  UNL1        0.0025
     15 C         140.3790  143.0316  169.1071 C.3     1  UNL1        0.0474
     16 O         140.1332  141.1825  170.9156 O.co2   1  UNL1       -0.5492
     17 C         139.8630  142.5797  170.4412 C.2     1  UNL1        0.0507
     18 O         139.0770  143.5249  171.3007 O.co2   1  UNL1       -0.5492
     19 C         144.5561  139.2219  163.9804 C.3     1  UNL1        0.0077
     20 C         143.9660  139.0267  162.6153 C.3     1  UNL1        0.0459
     21 C         142.4862  138.8378  162.4579 C.ar    1  UNL1        0.0603
     22 C         141.7754  137.7855  163.2562 C.ar    1  UNL1        0.0145
     23 C         140.2957  137.5966  163.0989 C.ar    1  UNL1       -0.0003
     24 C         139.5268  138.4600  162.1431 C.ar    1  UNL1        0.0092
     25 C         140.2377  139.5123  161.3447 C.ar    1  UNL1        0.1240
     26 N         141.7174  139.7011  161.5022 N.ar    1  UNL1       -0.2356
     27 N         139.4689  140.3756  160.3890 N.pl3   1  UNL1       -0.3184
     28 C         137.9892  140.1867  160.2316 C.3     1  UNL1        0.0885
     29 C         137.2783  139.1344  161.0300 C.3     1  UNL1        0.0260
     30 C         138.0471  138.2710  161.9857 C.3     1  UNL1        0.0309
     31 H         139.9354  141.0663  159.8650 H       1  UNL1        0.1482
@<TRIPOS>UNITY_ATOM_ATTR
16 1
charge -1
@<TRIPOS>BOND
     1    16    17   ar
     2    17    18   ar
     3    17    15    1
     4     7    15    1
     5     7     6    1
     6     6     1    1
     7     1     2    1
     8     2     3    1
     9     3     4    1
    10     4    19    1
    11    19    20    1
    12    20    21    1
    13    21    22   ar
    14    22    23   ar
    15    23    24   ar
    16    24    25   ar
    17    25    26   ar
    18    25    27    1
    19    27    28    1
    20    28    29    1
    21    29    30    1
    22     4     5    1
    23     7     8    1
    24     8     9   ar
    25     9    10   ar
    26    10    11   ar
    27    11    12   ar
    28    12    13    1
    29    12    14   ar
    30     5     1    1
    31    14     8   ar
    32    26    21   ar
    33    30    24    1
    34    27    31    1
@<TRIPOS>MOLECULE
*****
 31 34 0 0 0
SMALL
GASTEIGER

@<TRIPOS>ATOM
      1 N         142.3172  139.5105  165.4896 N.3     1  UNL1       -0.2724
      2 C         142.5574  138.6040  164.3188 C.3     1  UNL1        0.0721
      3 C         143.7942  139.0757  163.6134 C.3     1  UNL1        0.0187
      4 C         144.3185  140.2737  164.3482 C.3     1  UNL1        0.0178
      5 C         143.4057  140.5424  165.5077 C.3     1  UNL1        0.0721
      6 C         141.1870  139.4038  166.4700 C.3     1  UNL1        0.0768
      7 C         140.5835  140.6453  167.0569 C.3     1  UNL1        0.0438
      8 C         139.8709  141.6239  166.1710 C.ar    1  UNL1       -0.0203
      9 C         140.0661  143.0975  166.3717 C.ar    1  UNL1       -0.0042
     10 C         139.3535  144.0759  165.4857 C.ar    1  UNL1        0.0002
     11 C         138.4457  143.5807  164.3991 C.ar    1  UNL1        0.0067
     12 C         138.2505  142.1071  164.1984 C.ar    1  UNL1        0.0343
     13 BR        137.3427  141.6119  163.1118 Br      1  UNL1       -0.0490
     14 C         138.9631  141.1287  165.0844 C.ar    1  UNL1        0.0025
     15 C         140.6925  140.9083  168.5296 C.3     1  UNL1        0.0474
     16 O         139.2659  141.6196  170.5813 O.co2   1  UNL1       -0.5492
     17 C         139.5021  140.7017  169.4186 C.2     1  UNL1        0.0507
     18 O         138.5478  139.5772  169.1448 O.co2   1  UNL1       -0.5492
     19 C         145.5410  141.0642  163.9868 C.3     1  UNL1        0.0077
     20 C         145.4699  142.1043  162.9083 C.3     1  UNL1        0.0459
     21 C         144.2922  143.0306  162.8362 C.ar    1  UNL1        0.0603
     22 C         143.9247  143.8703  164.0236 C.ar    1  UNL1        0.0145
     23 C         142.7471  144.7966  163.9516 C.ar    1  UNL1       -0.0003
     24 C         141.9370  144.8833  162.6920 C.ar    1  UNL1        0.0092
     25 C         142.3046  144.0437  161.5046 C.ar    1  UNL1        0.1240
     26 N         143.4822  143.1173  161.5767 N.ar    1  UNL1       -0.2356
     27 N         141.4946  144.1304  160.2451 N.pl3   1  UNL1       -0.3184
     28 C         140.3170  145.0567  160.1731 C.3     1  UNL1        0.0885
     29 C         139.9494  145.8963  161.3605 C.3     1  UNL1        0.0260
     30 C         140.7594  145.8096  162.6199 C.3     1  UNL1        0.0309
     31 H         141.7358  143.5793  159.4658 H       1  UNL1        0.1482
@<TRIPOS>UNITY_ATOM_ATTR
16 1
charge -1
@<TRIPOS>BOND
     1    16    17   ar
     2    17    18   ar
     3    17    15    1
     4     7    15    1
     5     7     6    1
     6     6     1    1
     7     1     2    1
     8     2     3    1
     9     3     4    1
    10     4    19    1
    11    19    20    1
    12    20    21    1
    13    21    22   ar
    14    22    23   ar
    15    23    24   ar
    16    24    25   ar
    17    25    26   ar
    18    25    27    1
    19    27    28    1
    20    28    29    1
    21    29    30    1
    22     4     5    1
    23     7     8    1
    24     8     9   ar
    25     9    10   ar
    26    10    11   ar
    27    11    12   ar
    28    12    13    1
    29    12    14   ar
    30     5     1    1
    31    14     8   ar
    32    26    21   ar
    33    30    24    1
    34    27    31    1
@<TRIPOS>MOLECULE
*****
 31 34 0 0 0
SMALL
GASTEIGER

@<TRIPOS>ATOM
      1 N         137.9921  142.0438  163.3526 N.3     1  UNL1       -0.2724
      2 C         137.7659  142.8551  164.5939 C.3     1  UNL1        0.0721
      3 C         138.2200  144.2582  164.3198 C.3     1  UNL1        0.0187
      4 C         138.7268  144.3141  162.9092 C.3     1  UNL1        0.0178
      5 C         138.5860  142.9456  162.3114 C.3     1  UNL1        0.0721
      6 C         137.6793  140.5867  163.1824 C.3     1  UNL1        0.0768
      7 C         138.6420  139.5498  163.6804 C.3     1  UNL1        0.0438
      8 C         139.5985  139.8842  164.7866 C.ar    1  UNL1       -0.0203
      9 C         141.0221  140.2326  164.4673 C.ar    1  UNL1       -0.0042
     10 C         141.9785  140.5670  165.5734 C.ar    1  UNL1        0.0002
     11 C         141.5113  140.5529  166.9988 C.ar    1  UNL1        0.0067
     12 C         140.0877  140.2044  167.3180 C.ar    1  UNL1        0.0343
     13 BR        139.6205  140.1904  168.7433 Br      1  UNL1       -0.0490
     14 C         139.1313  139.8701  166.2119 C.ar    1  UNL1        0.0025
     15 C         138.6482  138.1786  163.0724 C.3     1  UNL1        0.0474
     16 O         139.2404  138.1462  160.5429 O.co2   1  UNL1       -0.5492
     17 C         139.6085  137.8526  161.9671 C.2     1  UNL1        0.0507
     18 O         140.9368  137.2330  162.2860 O.co2   1  UNL1       -0.5492
     19 C         139.2778  145.5258  162.2177 C.3     1  UNL1        0.0077
     20 C         140.6656  145.4988  161.6492 C.3     1  UNL1        0.0459
     21 C         141.7449  144.7208  162.3421 C.ar    1  UNL1        0.0603
     22 C         142.4175  145.2894  163.5564 C.ar    1  UNL1        0.0145
     23 C         143.4967  144.5115  164.2493 C.ar    1  UNL1       -0.0003
     24 C         143.9035  143.1651  163.7279 C.ar    1  UNL1        0.0092
     25 C         143.2309  142.5966  162.5136 C.ar    1  UNL1        0.1240
     26 N         142.1516  143.3745  161.8207 N.ar    1  UNL1       -0.2356
     27 N         143.6376  141.2502  161.9923 N.pl3   1  UNL1       -0.3184
     28 C         144.7168  140.4724  162.6851 C.3     1  UNL1        0.0885
     29 C         145.3894  141.0409  163.8994 C.3     1  UNL1        0.0260
     30 C         144.9827  142.3873  164.4208 C.3     1  UNL1        0.0309
     31 H         143.1961  140.8771  161.1953 H       1  UNL1        0.1482
@<TRIPOS>UNITY_ATOM_ATTR
16 1
charge -1
@<TRIPOS>BOND
     1    16    17   ar
     2    17    18   ar
     3    17    15    1
     4     7    15    1
     5     7     6    1
     6     6     1    1
     7     1     2    1
     8     2     3    1
     9     3     4    1
    10     4    19    1
    11    19    20    1
    12    20    21    1
    13    21    22   ar
    14    22    23   ar
    15    23    24   ar
    16    24    25   ar
    17    25    26   ar
    18    25    27    1
    19    27    28    1
    20    28    29    1
    21    29    30    1
    22     4     5    1
    23     7     8    1
    24     8     9   ar
    25     9    10   ar
    26    10    11   ar
    27    11    12   ar
    28    12    13    1
    29    12    14   ar
    30     5     1    1
    31    14     8   ar
    32    26    21   ar
    33    30    24    1
    34    27    31    1
@<TRIPOS>MOLECULE
*****
 31 34 0 0 0
SMALL
GASTEIGER

@<TRIPOS>ATOM
      1 N         142.0301  143.9030  164.0741 N.3     1  UNL1       -0.2724
      2 C         142.6781  144.4369  162.8310 C.3     1  UNL1        0.0721
      3 C         144.0204  143.7823  162.6903 C.3     1  UNL1        0.0187
      4 C         144.2019  142.8438  163.8463 C.3     1  UNL1        0.0178
      5 C         142.9718  142.9185  164.7015 C.3     1  UNL1        0.0721
      6 C         140.6777  144.2864  164.5977 C.3     1  UNL1        0.0768
      7 C         139.6523  143.2270  164.8736 C.3     1  UNL1        0.0438
      8 C         139.7971  142.3372  166.0726 C.ar    1  UNL1       -0.0203
      9 C         139.3179  140.9170  166.0148 C.ar    1  UNL1       -0.0042
     10 C         139.4628  140.0272  167.2137 C.ar    1  UNL1        0.0002
     11 C         140.0868  140.5577  168.4704 C.ar    1  UNL1        0.0067
     12 C         140.5660  141.9779  168.5281 C.ar    1  UNL1        0.0343
     13 BR        141.1901  142.5084  169.7848 Br      1  UNL1       -0.0490
     14 C         140.4212  142.8676  167.3292 C.ar    1  UNL1        0.0025
     15 C         138.4821  143.0573  163.9507 C.3     1  UNL1        0.0474
     16 O         137.7065  143.0214  161.4713 O.co2   1  UNL1       -0.5492
     17 C         138.7044  142.6443  162.5259 C.2     1  UNL1        0.0507
     18 O         139.9245  141.8542  162.1556 O.co2   1  UNL1       -0.5492
     19 C         145.4027  141.9821  164.1022 C.3     1  UNL1        0.0077
     20 C         145.3343  140.5056  163.8467 C.3     1  UNL1        0.0459
     21 C         144.0362  139.7739  164.0190 C.ar    1  UNL1        0.0603
     22 C         143.7055  139.1327  165.3341 C.ar    1  UNL1        0.0145
     23 C         142.4075  138.4011  165.5064 C.ar    1  UNL1       -0.0003
     24 C         141.4400  138.3106  164.3635 C.ar    1  UNL1        0.0092
     25 C         141.7707  138.9518  163.0484 C.ar    1  UNL1        0.1240
     26 N         143.0688  139.6835  162.8762 N.ar    1  UNL1       -0.2356
     27 N         140.8034  138.8614  161.9057 N.pl3   1  UNL1       -0.3184
     28 C         139.5053  138.1298  162.0780 C.3     1  UNL1        0.0885
     29 C         139.1746  137.4886  163.3931 C.3     1  UNL1        0.0260
     30 C         140.1420  137.5790  164.5358 C.3     1  UNL1        0.0309
     31 H         141.0204  139.2823  161.0425 H       1  UNL1        0.1482
@<TRIPOS>UNITY_ATOM_ATTR
16 1
charge -1
@<TRIPOS>BOND
     1    16    17   ar
     2    17    18   ar
     3    17    15    1
     4     7    15    1
     5     7     6    1
     6     6     1    1
     7     1     2    1
     8     2     3    1
     9     3     4    1
    10     4    19    1
    11    19    20    1
    12    20    21    1
    13    21    22   ar
    14    22    23   ar
    15    23    24   ar
    16    24    25   ar
    17    25    26   ar
    18    25    27    1
    19    27    28    1
    20    28    29    1
    21    29    30    1
    22     4     5    1
    23     7     8    1
    24     8     9   ar
    25     9    10   ar
    26    10    11   ar
    27    11    12   ar
    28    12    13    1
    29    12    14   ar
    30     5     1    1
    31    14     8   ar
    32    26    21   ar
    33    30    24    1
    34    27    31    1
@<TRIPOS>MOLECULE
*****
 31 34 0 0 0
SMALL
GASTEIGER

@<TRIPOS>ATOM
      1 N         141.5919  137.9394  162.9839 N.3     1  UNL1       -0.2724
      2 C         140.4075  137.9965  162.0651 C.3     1  UNL1        0.0721
      3 C         139.1718  137.7820  162.8879 C.3     1  UNL1        0.0187
      4 C         139.5924  137.5923  164.3151 C.3     1  UNL1        0.0178
      5 C         141.0881  137.6896  164.3745 C.3     1  UNL1        0.0721
      6 C         143.0278  138.1034  162.5825 C.3     1  UNL1        0.0768
      7 C         143.5307  139.4404  162.1246 C.3     1  UNL1        0.0438
      8 C         143.4821  140.6179  163.0526 C.ar    1  UNL1       -0.0203
      9 C         143.6951  140.4223  164.5244 C.ar    1  UNL1       -0.0042
     10 C         143.6465  141.5998  165.4523 C.ar    1  UNL1        0.0002
     11 C         143.3849  142.9730  164.9084 C.ar    1  UNL1        0.0067
     12 C         143.1719  143.1687  163.4365 C.ar    1  UNL1        0.0343
     13 BR        142.9103  144.5419  162.8926 Br      1  UNL1       -0.0490
     14 C         143.2205  141.9912  162.5086 C.ar    1  UNL1        0.0025
     15 C         144.0820  139.5998  160.7387 C.3     1  UNL1        0.0474
     16 O         141.7742  140.1999  159.7072 O.co2   1  UNL1       -0.5492
     17 C         143.1537  139.6289  159.5609 C.2     1  UNL1        0.0507
     18 O         143.6046  139.0872  158.2369 O.co2   1  UNL1       -0.5492
     19 C         138.6779  137.3482  165.4787 C.3     1  UNL1        0.0077
     20 C         138.1209  138.5073  166.2509 C.3     1  UNL1        0.0459
     21 C         138.5462  139.9061  165.9149 C.ar    1  UNL1        0.0603
     22 C         139.6578  140.5570  166.6834 C.ar    1  UNL1        0.0145
     23 C         140.0830  141.9557  166.3475 C.ar    1  UNL1       -0.0003
     24 C         139.3966  142.7035  165.2431 C.ar    1  UNL1        0.0092
     25 C         138.2850  142.0525  164.4746 C.ar    1  UNL1        0.1240
     26 N         137.8598  140.6538  164.8106 N.ar    1  UNL1       -0.2356
     27 N         137.5986  142.8003  163.3702 N.pl3   1  UNL1       -0.3184
     28 C         138.0238  144.1989  163.0343 C.3     1  UNL1        0.0885
     29 C         139.1354  144.8499  163.8028 C.3     1  UNL1        0.0260
     30 C         139.8218  144.1021  164.9072 C.3     1  UNL1        0.0309
     31 H         136.8690  142.3730  162.8658 H       1  UNL1        0.1482
@<TRIPOS>UNITY_ATOM_ATTR
16 1
charge -1
@<TRIPOS>BOND
     1    16    17   ar
     2    17    18   ar
     3    17    15    1
     4     7    15    1
     5     7     6    1
     6     6     1    1
     7     1     2    1
     8     2     3    1
     9     3     4    1
    10     4    19    1
    11    19    20    1
    12    20    21    1
    13    21    22   ar
    14    22    23   ar
    15    23    24   ar
    16    24    25   ar
    17    25    26   ar
    18    25    27    1
    19    27    28    1
    20    28    29    1
    21    29    30    1
    22     4     5    1
    23     7     8    1
    24     8     9   ar
    25     9    10   ar
    26    10    11   ar
    27    11    12   ar
    28    12    13    1
    29    12    14   ar
    30     5     1    1
    31    14     8   ar
    32    26    21   ar
    33    30    24    1
    34    27    31    1
