@<TRIPOS>MOLECULE
*****
 36 39 0 0 0
SMALL
GASTEIGER

@<TRIPOS>ATOM
      1 C         141.9539  138.0744  159.4294 C.ar    1  UNL1       -0.0176
      2 C         140.5107  138.4510  159.5890 C.ar    1  UNL1       -0.0039
      3 C         139.8873  138.4705  160.9531 C.ar    1  UNL1       -0.0003
      4 C         140.7069  138.1136  162.1576 C.ar    1  UNL1       -0.0003
      5 C         142.1501  137.7371  161.9980 C.ar    1  UNL1       -0.0003
      6 C         142.7736  137.7175  160.6338 C.ar    1  UNL1       -0.0039
      7 C         140.0834  138.1332  163.5217 C.2     1  UNL1       -0.0032
      8 C         139.1245  139.2255  163.8925 C.2     1  UNL1       -0.0088
      9 C         138.5010  139.2450  165.2566 C.3     1  UNL1        0.0989
     10 N         139.1471  140.0216  166.3654 N.3     1  UNL1       -0.2665
     11 C         138.9286  139.6146  167.7925 C.3     1  UNL1        0.0899
     12 C         139.5747  140.3912  168.9012 C.3     1  UNL1        0.0897
     13 N         140.4392  141.5751  168.5829 N.3     1  UNL1       -0.2682
     14 C         140.6577  141.9821  167.1559 C.3     1  UNL1        0.0897
     15 C         140.0116  141.2054  166.0471 C.3     1  UNL1        0.0899
     16 C         141.0853  142.3517  169.6917 C.3     1  UNL1        0.1043
     17 C         142.0270  141.6669  170.6373 C.3     1  UNL1        0.1556
     18 O         142.1988  142.1881  172.0333 O.3     1  UNL1       -0.3805
     19 H         141.6333  142.9660  172.1599 H       1  UNL1        0.2105
     20 C         142.7969  140.4609  170.1870 C.3     1  UNL1        0.1677
     21 O         143.5837  139.6591  171.1810 O.3     1  UNL1       -0.3795
     22 H         144.3129  140.1976  171.5261 H       1  UNL1        0.2105
     23 C         142.5775  138.0548  158.0652 C.3     1  UNL1        0.0570
     24 C         141.0279  137.3482  156.0049 C.ar    1  UNL1        0.0782
     25 N         140.8595  136.1057  155.1816 N.ar    1  UNL1       -0.1687
     26 N         141.8169  135.0734  155.6991 N.ar    1  UNL1       -0.2168
     27 C         142.0947  133.6611  155.2771 C.ar    1  UNL1        0.0636
     28 C         141.3347  133.0566  154.1340 C.3     1  UNL1        0.0522
     29 C         143.1326  132.8533  155.9983 C.ar    1  UNL1        0.0296
     30 C         143.8927  133.4578  157.1415 C.ar    1  UNL1        0.0622
     31 C         144.9307  132.6499  157.8627 C.3     1  UNL1        0.0522
     32 N         143.6149  134.8701  157.5635 N.ar    1  UNL1       -0.2311
     33 C         142.5770  135.6779  156.8423 C.ar    1  UNL1        0.1604
     34 C         142.0893  137.0838  157.0313 C.ar    1  UNL1        0.0332
     35 C         138.8361  138.5990  155.3874 C.3     1  UNL1        0.0067
     36 C         140.2682  138.6300  155.8322 C.3     1  UNL1        0.0474
@<TRIPOS>BOND
     1    35    36    1
     2    36    24    1
     3    24    25   ar
     4    25    26   ar
     5    26    27   ar
     6    27    28    1
     7    27    29   ar
     8    29    30   ar
     9    30    31    1
    10    30    32   ar
    11    32    33   ar
    12    33    34   ar
    13    34    23    1
    14    23     1    1
    15     1     2   ar
    16     2     3   ar
    17     3     4   ar
    18     4     7    1
    19     7     8    2
    20     8     9    1
    21     9    10    1
    22    10    11    1
    23    11    12    1
    24    12    13    1
    25    13    16    1
    26    16    17    1
    27    17    18    1
    28    17    20    1
    29    20    21    1
    30    13    14    1
    31    14    15    1
    32     4     5   ar
    33     5     6   ar
    34    34    24   ar
    35     6     1   ar
    36    33    26   ar
    37    15    10    1
    38    18    19    1
    39    21    22    1
@<TRIPOS>MOLECULE
*****
 36 39 0 0 0
SMALL
GASTEIGER

@<TRIPOS>ATOM
      1 C         138.2599  141.1343  161.2702 C.ar    1  UNL1       -0.0176
      2 C         138.5301  139.6606  161.3423 C.ar    1  UNL1       -0.0039
      3 C         139.0174  138.9273  160.1280 C.ar    1  UNL1       -0.0003
      4 C         139.2346  139.6675  158.8416 C.ar    1  UNL1       -0.0003
      5 C         138.9644  141.1413  158.7695 C.ar    1  UNL1       -0.0003
      6 C         138.4770  141.8746  159.9838 C.ar    1  UNL1       -0.0039
      7 C         139.7219  138.9341  157.6273 C.2     1  UNL1       -0.0032
      8 C         141.1863  138.6588  157.4547 C.2     1  UNL1       -0.0088
      9 C         141.6736  137.9254  156.2404 C.3     1  UNL1        0.0989
     10 N         141.9998  136.4639  156.3277 N.3     1  UNL1       -0.2665
     11 C         141.3339  135.4902  155.4012 C.3     1  UNL1        0.0899
     12 C         141.6600  134.0287  155.4884 C.3     1  UNL1        0.0897
     13 N         142.6522  133.5408  156.5023 N.3     1  UNL1       -0.2682
     14 C         143.3180  134.5145  157.4289 C.3     1  UNL1        0.0897
     15 C         142.9918  135.9761  157.3415 C.3     1  UNL1        0.0899
     16 C         142.9783  132.0793  156.5896 C.3     1  UNL1        0.1043
     17 C         144.3598  131.6409  156.9759 C.3     1  UNL1        0.1556
     18 O         145.5548  132.2438  156.2987 O.3     1  UNL1       -0.3805
     19 H         145.2604  132.8946  155.6424 H       1  UNL1        0.2105
     20 C         144.5464  130.5997  158.0395 C.3     1  UNL1        0.1677
     21 O         143.3673  129.8190  158.5397 O.3     1  UNL1       -0.3795
     22 H         142.7571  130.4152  159.0015 H       1  UNL1        0.2105
     23 C         137.7725  141.8678  162.4846 C.3     1  UNL1        0.0570
     24 C         139.6904  143.1860  163.7995 C.ar    1  UNL1        0.0782
     25 N         140.3871  143.0098  165.1162 N.ar    1  UNL1       -0.1687
     26 N         139.8174  141.7928  165.7828 N.ar    1  UNL1       -0.2168
     27 C         140.1182  141.1346  167.0966 C.ar    1  UNL1        0.0636
     28 C         141.1669  141.7105  168.0013 C.3     1  UNL1        0.0522
     29 C         139.3702  139.9005  167.5058 C.ar    1  UNL1        0.0296
     30 C         138.3214  139.3246  166.6012 C.ar    1  UNL1        0.0622
     31 C         137.5734  138.0904  167.0105 C.3     1  UNL1        0.0522
     32 N         138.0206  139.9828  165.2873 N.ar    1  UNL1       -0.2311
     33 C         138.7686  141.2168  164.8781 C.ar    1  UNL1        0.1604
     34 C         138.6902  142.0779  163.6524 C.ar    1  UNL1        0.0332
     35 C         141.1811  144.2393  161.9507 C.3     1  UNL1        0.0067
     36 C         139.9486  144.2786  162.8047 C.3     1  UNL1        0.0474
@<TRIPOS>BOND
     1    35    36    1
     2    36    24    1
     3    24    25   ar
     4    25    26   ar
     5    26    27   ar
     6    27    28    1
     7    27    29   ar
     8    29    30   ar
     9    30    31    1
    10    30    32   ar
    11    32    33   ar
    12    33    34   ar
    13    34    23    1
    14    23     1    1
    15     1     2   ar
    16     2     3   ar
    17     3     4   ar
    18     4     7    1
    19     7     8    2
    20     8     9    1
    21     9    10    1
    22    10    11    1
    23    11    12    1
    24    12    13    1
    25    13    16    1
    26    16    17    1
    27    17    18    1
    28    17    20    1
    29    20    21    1
    30    13    14    1
    31    14    15    1
    32     4     5   ar
    33     5     6   ar
    34    34    24   ar
    35     6     1   ar
    36    33    26   ar
    37    15    10    1
    38    18    19    1
    39    21    22    1
@<TRIPOS>MOLECULE
*****
 36 39 0 0 0
SMALL
GASTEIGER

@<TRIPOS>ATOM
      1 C         142.4989  138.4237  162.1448 C.ar    1  UNL1       -0.0176
      2 C         143.4995  138.7714  161.0828 C.ar    1  UNL1       -0.0039
      3 C         143.0496  138.9750  159.6664 C.ar    1  UNL1       -0.0003
      4 C         141.5992  138.8311  159.3121 C.ar    1  UNL1       -0.0003
      5 C         140.5986  138.4834  160.3742 C.ar    1  UNL1       -0.0003
      6 C         141.0485  138.2797  161.7905 C.ar    1  UNL1       -0.0039
      7 C         141.1494  139.0348  157.8957 C.2     1  UNL1       -0.0032
      8 C         140.4808  137.9162  157.1528 C.2     1  UNL1       -0.0088
      9 C         140.0310  138.1200  155.7364 C.3     1  UNL1        0.0989
     10 N         138.6388  138.6015  155.4536 N.3     1  UNL1       -0.2665
     11 C         137.6956  137.7454  154.6615 C.3     1  UNL1        0.0899
     12 C         136.3034  138.2268  154.3787 C.3     1  UNL1        0.0897
     13 N         135.8544  139.5645  154.8880 N.3     1  UNL1       -0.2682
     14 C         136.7976  140.4205  155.6802 C.3     1  UNL1        0.0897
     15 C         138.1898  139.9390  155.9629 C.3     1  UNL1        0.0899
     16 C         134.4622  140.0459  154.6052 C.3     1  UNL1        0.1043
     17 C         133.6004  140.5486  155.7253 C.3     1  UNL1        0.1556
     18 O         133.0185  141.9296  155.6623 O.3     1  UNL1       -0.3805
     19 H         133.2950  142.3596  154.8379 H       1  UNL1        0.2105
     20 C         133.3204  139.6701  156.9085 C.3     1  UNL1        0.1677
     21 O         133.7733  138.2401  156.9048 O.3     1  UNL1       -0.3795
     22 H         133.2907  137.7499  156.2209 H       1  UNL1        0.2105
     23 C         142.9488  138.2200  163.5613 C.3     1  UNL1        0.0570
     24 C         143.8616  140.3840  164.8375 C.ar    1  UNL1        0.0782
     25 N         143.3210  141.2966  165.8982 N.ar    1  UNL1       -0.1687
     26 N         141.9510  140.8132  166.2715 N.ar    1  UNL1       -0.2168
     27 C         140.9427  141.3195  167.2599 C.ar    1  UNL1        0.0636
     28 C         141.2489  142.5309  168.0898 C.3     1  UNL1        0.0522
     29 C         139.6283  140.6145  167.4183 C.ar    1  UNL1        0.0296
     30 C         139.3221  139.4032  166.5883 C.ar    1  UNL1        0.0622
     31 C         138.0075  138.6981  166.7468 C.3     1  UNL1        0.0522
     32 N         140.3303  138.8968  165.5999 N.ar    1  UNL1       -0.2311
     33 C         141.6448  139.6018  165.4415 C.ar    1  UNL1        0.1604
     34 C         142.8256  139.3366  164.5553 C.ar    1  UNL1        0.0332
     35 C         145.5100  141.6799  163.3034 C.3     1  UNL1        0.0067
     36 C         145.2026  140.4987  164.1754 C.3     1  UNL1        0.0474
@<TRIPOS>BOND
     1    35    36    1
     2    36    24    1
     3    24    25   ar
     4    25    26   ar
     5    26    27   ar
     6    27    28    1
     7    27    29   ar
     8    29    30   ar
     9    30    31    1
    10    30    32   ar
    11    32    33   ar
    12    33    34   ar
    13    34    23    1
    14    23     1    1
    15     1     2   ar
    16     2     3   ar
    17     3     4   ar
    18     4     7    1
    19     7     8    2
    20     8     9    1
    21     9    10    1
    22    10    11    1
    23    11    12    1
    24    12    13    1
    25    13    16    1
    26    16    17    1
    27    17    18    1
    28    17    20    1
    29    20    21    1
    30    13    14    1
    31    14    15    1
    32     4     5   ar
    33     5     6   ar
    34    34    24   ar
    35     6     1   ar
    36    33    26   ar
    37    15    10    1
    38    18    19    1
    39    21    22    1
@<TRIPOS>MOLECULE
*****
 36 39 0 0 0
SMALL
GASTEIGER

@<TRIPOS>ATOM
      1 C         140.2237  139.9920  162.3582 C.ar    1  UNL1       -0.0176
      2 C         140.1135  140.4412  160.9313 C.ar    1  UNL1       -0.0039
      3 C         140.8775  139.7239  159.8582 C.ar    1  UNL1       -0.0003
      4 C         141.7517  138.5574  160.2118 C.ar    1  UNL1       -0.0003
      5 C         141.8619  138.1082  161.6388 C.ar    1  UNL1       -0.0003
      6 C         141.0979  138.8255  162.7119 C.ar    1  UNL1       -0.0039
      7 C         142.5157  137.8401  159.1386 C.2     1  UNL1       -0.0032
      8 C         141.9752  137.7881  157.7403 C.2     1  UNL1       -0.0088
      9 C         142.7393  137.0708  156.6671 C.3     1  UNL1        0.0989
     10 N         142.6784  135.5748  156.5755 N.3     1  UNL1       -0.2665
     11 C         143.5665  134.7335  157.4437 C.3     1  UNL1        0.0899
     12 C         143.5056  133.2376  157.3521 C.3     1  UNL1        0.0897
     13 N         142.5568  132.5829  156.3923 N.3     1  UNL1       -0.2682
     14 C         141.6688  133.4241  155.5241 C.3     1  UNL1        0.0897
     15 C         141.7296  134.9201  155.6158 C.3     1  UNL1        0.0899
     16 C         142.4960  131.0869  156.3007 C.3     1  UNL1        0.1043
     17 C         143.4899  130.2487  157.0486 C.3     1  UNL1        0.1556
     18 O         143.2104  129.8380  158.4640 O.3     1  UNL1       -0.3805
     19 H         142.3520  130.1950  158.7407 H       1  UNL1        0.2105
     20 C         144.7634  129.8211  156.3812 C.3     1  UNL1        0.1677
     21 O         145.0284  130.2046  154.9555 O.3     1  UNL1       -0.3795
     22 H         144.3863  129.7638  154.3774 H       1  UNL1        0.2105
     23 C         139.4597  140.7093  163.4315 C.3     1  UNL1        0.0570
     24 C         139.3040  139.9597  165.9925 C.ar    1  UNL1        0.0782
     25 N         140.1296  140.2032  167.2210 N.ar    1  UNL1       -0.1687
     26 N         141.2874  141.0757  166.8360 N.ar    1  UNL1       -0.2168
     27 C         142.4277  141.6390  167.6312 C.ar    1  UNL1        0.0636
     28 C         142.5377  141.3432  169.0976 C.3     1  UNL1        0.0522
     29 C         143.4579  142.4981  166.9600 C.ar    1  UNL1        0.0296
     30 C         143.3478  142.7939  165.4936 C.ar    1  UNL1        0.0622
     31 C         144.3781  143.6530  164.8224 C.3     1  UNL1        0.0522
     32 N         142.2076  142.2305  164.6983 N.ar    1  UNL1       -0.2311
     33 C         141.1774  141.3714  165.3695 C.ar    1  UNL1        0.1604
     34 C         139.9515  140.6818  164.8483 C.ar    1  UNL1        0.0332
     35 C         137.5678  138.3999  167.1338 C.3     1  UNL1        0.0067
     36 C         138.0508  139.1385  165.9209 C.3     1  UNL1        0.0474
@<TRIPOS>BOND
     1    35    36    1
     2    36    24    1
     3    24    25   ar
     4    25    26   ar
     5    26    27   ar
     6    27    28    1
     7    27    29   ar
     8    29    30   ar
     9    30    31    1
    10    30    32   ar
    11    32    33   ar
    12    33    34   ar
    13    34    23    1
    14    23     1    1
    15     1     2   ar
    16     2     3   ar
    17     3     4   ar
    18     4     7    1
    19     7     8    2
    20     8     9    1
    21     9    10    1
    22    10    11    1
    23    11    12    1
    24    12    13    1
    25    13    16    1
    26    16    17    1
    27    17    18    1
    28    17    20    1
    29    20    21    1
    30    13    14    1
    31    14    15    1
    32     4     5   ar
    33     5     6   ar
    34    34    24   ar
    35     6     1   ar
    36    33    26   ar
    37    15    10    1
    38    18    19    1
    39    21    22    1
@<TRIPOS>MOLECULE
*****
 36 39 0 0 0
SMALL
GASTEIGER

@<TRIPOS>ATOM
      1 C         138.4079  140.0095  163.0224 C.ar    1  UNL1       -0.0176
      2 C         138.2729  140.9012  161.8238 C.ar    1  UNL1       -0.0039
      3 C         138.6564  140.3945  160.4651 C.ar    1  UNL1       -0.0003
      4 C         139.1749  138.9961  160.3049 C.ar    1  UNL1       -0.0003
      5 C         139.3099  138.1044  161.5035 C.ar    1  UNL1       -0.0003
      6 C         138.9264  138.6111  162.8622 C.ar    1  UNL1       -0.0039
      7 C         139.5584  138.4895  158.9462 C.2     1  UNL1       -0.0032
      8 C         139.5746  139.4251  157.7738 C.2     1  UNL1       -0.0088
      9 C         139.9581  138.9184  156.4151 C.3     1  UNL1        0.0989
     10 N         140.9123  137.7683  156.2855 N.3     1  UNL1       -0.2665
     11 C         142.3387  137.9242  156.7224 C.3     1  UNL1        0.0899
     12 C         143.2929  136.7741  156.5927 C.3     1  UNL1        0.0897
     13 N         142.8205  135.4679  156.0261 N.3     1  UNL1       -0.2682
     14 C         141.3940  135.3120  155.5893 C.3     1  UNL1        0.0897
     15 C         140.4399  136.4622  155.7190 C.3     1  UNL1        0.0899
     16 C         143.7746  134.3178  155.8965 C.3     1  UNL1        0.1043
     17 C         143.2745  132.9098  156.0286 C.3     1  UNL1        0.1556
     18 O         142.7483  132.4214  157.3456 O.3     1  UNL1       -0.3805
     19 H         142.8018  133.1353  158.0001 H       1  UNL1        0.2105
     20 C         143.3005  131.9903  154.8438 C.3     1  UNL1        0.1677
     21 O         142.3433  132.2025  153.7086 O.3     1  UNL1       -0.3795
     22 H         141.4369  132.0452  154.0162 H       1  UNL1        0.2105
     23 C         138.0244  140.5162  164.3812 C.3     1  UNL1        0.0570
     24 C         138.8563  139.5310  166.7227 C.ar    1  UNL1        0.0782
     25 N         140.0509  139.7528  167.6023 N.ar    1  UNL1       -0.1687
     26 N         140.9282  140.7757  166.9435 N.ar    1  UNL1       -0.2168
     27 C         142.2368  141.3864  167.3492 C.ar    1  UNL1        0.0636
     28 C         142.8892  140.9759  168.6360 C.3     1  UNL1        0.0522
     29 C         142.8931  142.4075  166.4680 C.ar    1  UNL1        0.0296
     30 C         142.2407  142.8180  165.1811 C.ar    1  UNL1        0.0622
     31 C         142.8970  143.8392  164.2999 C.3     1  UNL1        0.0522
     32 N         140.9321  142.2073  164.7755 N.ar    1  UNL1       -0.2311
     33 C         140.2759  141.1861  165.6567 C.ar    1  UNL1        0.1604
     34 C         138.9954  140.4169  165.5202 C.ar    1  UNL1        0.0332
     35 C         137.7648  137.1877  166.4638 C.3     1  UNL1        0.0067
     36 C         137.7219  138.5889  166.9973 C.3     1  UNL1        0.0474
@<TRIPOS>BOND
     1    35    36    1
     2    36    24    1
     3    24    25   ar
     4    25    26   ar
     5    26    27   ar
     6    27    28    1
     7    27    29   ar
     8    29    30   ar
     9    30    31    1
    10    30    32   ar
    11    32    33   ar
    12    33    34   ar
    13    34    23    1
    14    23     1    1
    15     1     2   ar
    16     2     3   ar
    17     3     4   ar
    18     4     7    1
    19     7     8    2
    20     8     9    1
    21     9    10    1
    22    10    11    1
    23    11    12    1
    24    12    13    1
    25    13    16    1
    26    16    17    1
    27    17    18    1
    28    17    20    1
    29    20    21    1
    30    13    14    1
    31    14    15    1
    32     4     5   ar
    33     5     6   ar
    34    34    24   ar
    35     6     1   ar
    36    33    26   ar
    37    15    10    1
    38    18    19    1
    39    21    22    1
@<TRIPOS>MOLECULE
*****
 36 39 0 0 0
SMALL
GASTEIGER

@<TRIPOS>ATOM
      1 C         141.9585  138.8359  162.8302 C.ar    1  UNL1       -0.0176
      2 C         140.8297  138.8473  161.8425 C.ar    1  UNL1       -0.0039
      3 C         141.0813  138.4736  160.4118 C.ar    1  UNL1       -0.0003
      4 C         142.4617  138.0886  159.9687 C.ar    1  UNL1       -0.0003
      5 C         143.5905  138.0772  160.9564 C.ar    1  UNL1       -0.0003
      6 C         143.3389  138.4508  162.3872 C.ar    1  UNL1       -0.0039
      7 C         142.7132  137.7150  158.5379 C.2     1  UNL1       -0.0032
      8 C         141.5665  137.6150  157.5761 C.2     1  UNL1       -0.0088
      9 C         141.8181  137.2414  156.1453 C.3     1  UNL1        0.0989
     10 N         142.2079  135.8360  155.7947 N.3     1  UNL1       -0.2665
     11 C         141.1798  134.8838  155.2596 C.3     1  UNL1        0.0899
     12 C         141.5697  133.4784  154.9089 C.3     1  UNL1        0.0897
     13 N         142.9877  133.0252  155.0934 N.3     1  UNL1       -0.2682
     14 C         144.0158  133.9774  155.6285 C.3     1  UNL1        0.0897
     15 C         143.6259  135.3828  155.9791 C.3     1  UNL1        0.0899
     16 C         143.3775  131.6199  154.7427 C.3     1  UNL1        0.1043
     17 C         144.3716  130.8834  155.5909 C.3     1  UNL1        0.1556
     18 O         145.3089  129.8960  154.9614 O.3     1  UNL1       -0.3805
     19 H         145.1411  129.8540  154.0070 H       1  UNL1        0.2105
     20 C         144.4283  131.1345  157.0687 C.3     1  UNL1        0.1677
     21 O         143.2262  130.8599  157.9228 O.3     1  UNL1       -0.3795
     22 H         142.5121  131.4705  157.6817 H       1  UNL1        0.2105
     23 C         141.7070  139.2095  164.2611 C.3     1  UNL1        0.0570
     24 C         139.3990  140.2073  165.1680 C.ar    1  UNL1        0.0782
     25 N         138.8310  141.5860  165.3318 N.ar    1  UNL1       -0.1687
     26 N         139.8573  142.5700  164.8538 N.ar    1  UNL1       -0.2168
     27 C         139.8524  144.0680  164.7774 C.ar    1  UNL1        0.0636
     28 C         138.6502  144.8385  165.2367 C.3     1  UNL1        0.0522
     29 C         141.0498  144.7955  164.2417 C.ar    1  UNL1        0.0296
     30 C         142.2520  144.0250  163.7824 C.ar    1  UNL1        0.0622
     31 C         143.4494  144.7526  163.2467 C.3     1  UNL1        0.0522
     32 N         142.2569  142.5270  163.8588 N.ar    1  UNL1       -0.2311
     33 C         141.0596  141.7995  164.3945 C.ar    1  UNL1        0.1604
     34 C         140.7763  140.3393  164.5887 C.ar    1  UNL1        0.0332
     35 C         138.0000  138.7890  166.8357 C.3     1  UNL1        0.0067
     36 C         138.7105  138.9224  165.5214 C.3     1  UNL1        0.0474
@<TRIPOS>BOND
     1    35    36    1
     2    36    24    1
     3    24    25   ar
     4    25    26   ar
     5    26    27   ar
     6    27    28    1
     7    27    29   ar
     8    29    30   ar
     9    30    31    1
    10    30    32   ar
    11    32    33   ar
    12    33    34   ar
    13    34    23    1
    14    23     1    1
    15     1     2   ar
    16     2     3   ar
    17     3     4   ar
    18     4     7    1
    19     7     8    2
    20     8     9    1
    21     9    10    1
    22    10    11    1
    23    11    12    1
    24    12    13    1
    25    13    16    1
    26    16    17    1
    27    17    18    1
    28    17    20    1
    29    20    21    1
    30    13    14    1
    31    14    15    1
    32     4     5   ar
    33     5     6   ar
    34    34    24   ar
    35     6     1   ar
    36    33    26   ar
    37    15    10    1
    38    18    19    1
    39    21    22    1
@<TRIPOS>MOLECULE
*****
 36 39 0 0 0
SMALL
GASTEIGER

@<TRIPOS>ATOM
      1 C         142.4433  139.2006  164.9924 C.ar    1  UNL1       -0.0176
      2 C         142.0394  137.9858  164.2107 C.ar    1  UNL1       -0.0039
      3 C         141.9225  138.0598  162.7171 C.ar    1  UNL1       -0.0003
      4 C         142.2096  139.3485  162.0052 C.ar    1  UNL1       -0.0003
      5 C         142.6135  140.5633  162.7870 C.ar    1  UNL1       -0.0003
      6 C         142.7304  140.4893  164.2806 C.ar    1  UNL1       -0.0039
      7 C         142.0927  139.4225  160.5116 C.2     1  UNL1       -0.0032
      8 C         143.3277  139.3991  159.6605 C.2     1  UNL1       -0.0088
      9 C         143.2107  139.4731  158.1670 C.3     1  UNL1        0.0989
     10 N         143.2321  138.2153  157.3499 N.3     1  UNL1       -0.2665
     11 C         143.7007  138.2541  155.9255 C.3     1  UNL1        0.0899
     12 C         143.7221  136.9964  155.1084 C.3     1  UNL1        0.0897
     13 N         143.2748  135.6997  155.7158 N.3     1  UNL1       -0.2682
     14 C         142.8062  135.6609  157.1402 C.3     1  UNL1        0.0897
     15 C         142.7848  136.9187  157.9572 C.3     1  UNL1        0.0899
     16 C         143.2962  134.4420  154.8987 C.3     1  UNL1        0.1043
     17 C         143.5698  133.1232  155.5590 C.3     1  UNL1        0.1556
     18 O         144.9536  132.7965  156.0368 O.3     1  UNL1       -0.3805
     19 H         145.5464  133.5394  155.8431 H       1  UNL1        0.2105
     20 C         142.4596  132.1312  155.7415 C.3     1  UNL1        0.1677
     21 O         141.0635  132.4820  155.3199 O.3     1  UNL1       -0.3795
     22 H         140.7295  133.2034  155.8757 H       1  UNL1        0.2105
     23 C         142.5602  139.1266  166.4861 C.3     1  UNL1        0.0570
     24 C         140.1530  139.8861  167.3657 C.ar    1  UNL1        0.0782
     25 N         139.6574  140.8769  168.3770 N.ar    1  UNL1       -0.1687
     26 N         140.8497  141.5520  168.9875 N.ar    1  UNL1       -0.2168
     27 C         140.9723  142.6149  170.0387 C.ar    1  UNL1        0.0636
     28 C         139.7398  143.1884  170.6728 C.3     1  UNL1        0.0522
     29 C         142.3274  143.1043  170.4560 C.ar    1  UNL1        0.0296
     30 C         143.5599  142.5308  169.8219 C.ar    1  UNL1        0.0622
     31 C         144.9151  143.0202  170.2392 C.3     1  UNL1        0.0522
     32 N         143.4373  141.4679  168.7706 N.ar    1  UNL1       -0.2311
     33 C         142.0822  140.9785  168.3534 C.ar    1  UNL1        0.1604
     34 C         141.6516  139.9490  167.3511 C.ar    1  UNL1        0.0332
     35 C         138.0998  139.5462  165.8104 C.3     1  UNL1        0.0067
     36 C         139.2998  138.9899  166.5178 C.3     1  UNL1        0.0474
@<TRIPOS>BOND
     1    35    36    1
     2    36    24    1
     3    24    25   ar
     4    25    26   ar
     5    26    27   ar
     6    27    28    1
     7    27    29   ar
     8    29    30   ar
     9    30    31    1
    10    30    32   ar
    11    32    33   ar
    12    33    34   ar
    13    34    23    1
    14    23     1    1
    15     1     2   ar
    16     2     3   ar
    17     3     4   ar
    18     4     7    1
    19     7     8    2
    20     8     9    1
    21     9    10    1
    22    10    11    1
    23    11    12    1
    24    12    13    1
    25    13    16    1
    26    16    17    1
    27    17    18    1
    28    17    20    1
    29    20    21    1
    30    13    14    1
    31    14    15    1
    32     4     5   ar
    33     5     6   ar
    34    34    24   ar
    35     6     1   ar
    36    33    26   ar
    37    15    10    1
    38    18    19    1
    39    21    22    1
@<TRIPOS>MOLECULE
*****
 36 39 0 0 0
SMALL
GASTEIGER

@<TRIPOS>ATOM
      1 C         140.7000  142.2166  163.1568 C.ar    1  UNL1       -0.0176
      2 C         141.2491  140.8446  162.8994 C.ar    1  UNL1       -0.0039
      3 C         141.5625  140.4132  161.4974 C.ar    1  UNL1       -0.0003
      4 C         141.3268  141.3537  160.3529 C.ar    1  UNL1       -0.0003
      5 C         140.7777  142.7256  160.6103 C.ar    1  UNL1       -0.0003
      6 C         140.4643  143.1570  162.0123 C.ar    1  UNL1       -0.0039
      7 C         141.6402  140.9222  158.9509 C.2     1  UNL1       -0.0032
      8 C         142.9000  140.1599  158.6646 C.2     1  UNL1       -0.0088
      9 C         143.2134  139.7285  157.2626 C.3     1  UNL1        0.0989
     10 N         143.3642  138.2708  156.9425 N.3     1  UNL1       -0.2665
     11 C         142.8440  137.2359  157.8956 C.3     1  UNL1        0.0899
     12 C         142.9948  135.7783  157.5756 C.3     1  UNL1        0.0897
     13 N         143.6658  135.3554  156.3023 N.3     1  UNL1       -0.2682
     14 C         144.1860  136.3903  155.3492 C.3     1  UNL1        0.0897
     15 C         144.0352  137.8480  155.6694 C.3     1  UNL1        0.0899
     16 C         143.8166  133.8978  155.9823 C.3     1  UNL1        0.1043
     17 C         142.6746  132.9552  156.2218 C.3     1  UNL1        0.1556
     18 O         142.7614  131.9351  157.3181 O.3     1  UNL1       -0.3805
     19 H         143.6146  132.0197  157.7716 H       1  UNL1        0.2105
     20 C         141.4457  133.0328  155.3651 C.3     1  UNL1        0.1677
     21 O         141.1135  134.3053  154.6437 O.3     1  UNL1       -0.3795
     22 H         140.9050  134.9982  155.2897 H       1  UNL1        0.2105
     23 C         140.3866  142.6480  164.5589 C.3     1  UNL1        0.0570
     24 C         142.8745  143.1427  165.4018 C.ar    1  UNL1        0.0782
     25 N         143.6077  142.9747  166.6996 N.ar    1  UNL1       -0.1687
     26 N         142.6539  142.3898  167.6986 N.ar    1  UNL1       -0.2168
     27 C         142.8189  142.0085  169.1399 C.ar    1  UNL1        0.0636
     28 C         144.1417  142.2021  169.8202 C.3     1  UNL1        0.0522
     29 C         141.6612  141.4336  169.9008 C.ar    1  UNL1        0.0296
     30 C         140.3384  141.2400  169.2205 C.ar    1  UNL1        0.0622
     31 C         139.1807  140.6650  169.9816 C.3     1  UNL1        0.0522
     32 N         140.1734  141.6213  167.7793 N.ar    1  UNL1       -0.2311
     33 C         141.3311  142.1963  167.0183 C.ar    1  UNL1        0.1604
     34 C         141.4675  142.6615  165.5988 C.ar    1  UNL1        0.0332
     35 C         144.4081  142.8738  163.3220 C.3     1  UNL1        0.0067
     36 C         143.4476  143.6948  164.1303 C.3     1  UNL1        0.0474
@<TRIPOS>BOND
     1    35    36    1
     2    36    24    1
     3    24    25   ar
     4    25    26   ar
     5    26    27   ar
     6    27    28    1
     7    27    29   ar
     8    29    30   ar
     9    30    31    1
    10    30    32   ar
    11    32    33   ar
    12    33    34   ar
    13    34    23    1
    14    23     1    1
    15     1     2   ar
    16     2     3   ar
    17     3     4   ar
    18     4     7    1
    19     7     8    2
    20     8     9    1
    21     9    10    1
    22    10    11    1
    23    11    12    1
    24    12    13    1
    25    13    16    1
    26    16    17    1
    27    17    18    1
    28    17    20    1
    29    20    21    1
    30    13    14    1
    31    14    15    1
    32     4     5   ar
    33     5     6   ar
    34    34    24   ar
    35     6     1   ar
    36    33    26   ar
    37    15    10    1
    38    18    19    1
    39    21    22    1
@<TRIPOS>MOLECULE
*****
 36 39 0 0 0
SMALL
GASTEIGER

@<TRIPOS>ATOM
      1 C         139.9337  143.1038  164.7230 C.ar    1  UNL1       -0.0176
      2 C         140.9184  142.5660  163.7274 C.ar    1  UNL1       -0.0039
      3 C         140.5456  142.4766  162.2773 C.ar    1  UNL1       -0.0003
      4 C         139.1882  142.9249  161.8227 C.ar    1  UNL1       -0.0003
      5 C         138.2036  143.4626  162.8183 C.ar    1  UNL1       -0.0003
      6 C         138.5763  143.5520  164.2685 C.ar    1  UNL1       -0.0039
      7 C         138.8156  142.8354  160.3725 C.2     1  UNL1       -0.0032
      8 C         139.8739  142.9611  159.3169 C.2     1  UNL1       -0.0088
      9 C         139.5011  142.8717  157.8668 C.3     1  UNL1        0.0989
     10 N         139.6341  144.0761  156.9826 N.3     1  UNL1       -0.2665
     11 C         140.8504  144.9484  157.0814 C.3     1  UNL1        0.0899
     12 C         140.9834  146.1528  156.1972 C.3     1  UNL1        0.0897
     13 N         139.9000  146.4849  155.2142 N.3     1  UNL1       -0.2682
     14 C         138.6838  145.6125  155.1153 C.3     1  UNL1        0.0897
     15 C         138.5509  144.4081  155.9996 C.3     1  UNL1        0.0899
     16 C         140.0330  147.6893  154.3300 C.3     1  UNL1        0.1043
     17 C         139.7825  149.0595  154.8864 C.3     1  UNL1        0.1556
     18 O         140.6962  150.1935  154.5271 O.3     1  UNL1       -0.3805
     19 H         141.3912  149.8724  153.9314 H       1  UNL1        0.2105
     20 C         138.6182  149.2958  155.8022 C.3     1  UNL1        0.1677
     21 O         138.5377  148.5738  157.1146 O.3     1  UNL1       -0.3795
     22 H         138.4281  147.6234  156.9546 H       1  UNL1        0.2105
     23 C         140.3064  143.1932  166.1733 C.3     1  UNL1        0.0570
     24 C         139.8709  140.6362  166.8193 C.ar    1  UNL1        0.0782
     25 N         140.4846  139.6672  167.7859 N.ar    1  UNL1       -0.1687
     26 N         141.5866  140.3759  168.5162 N.ar    1  UNL1       -0.2168
     27 C         142.5373  139.9218  169.5838 C.ar    1  UNL1        0.0636
     28 C         142.4700  138.5146  170.0990 C.3     1  UNL1        0.0522
     29 C         143.5554  140.8748  170.1363 C.ar    1  UNL1        0.0296
     30 C         143.6227  142.2819  169.6211 C.ar    1  UNL1        0.0622
     31 C         144.6409  143.2350  170.1736 C.3     1  UNL1        0.0522
     32 N         142.6720  142.7361  168.5535 N.ar    1  UNL1       -0.2311
     33 C         141.6539  141.7831  168.0011 C.ar    1  UNL1        0.1604
     34 C         140.5936  141.9439  166.9523 C.ar    1  UNL1        0.0332
     35 C         137.9646  139.0670  166.0111 C.3     1  UNL1        0.0067
     36 C         138.7342  140.3482  165.8840 C.3     1  UNL1        0.0474
@<TRIPOS>BOND
     1    35    36    1
     2    36    24    1
     3    24    25   ar
     4    25    26   ar
     5    26    27   ar
     6    27    28    1
     7    27    29   ar
     8    29    30   ar
     9    30    31    1
    10    30    32   ar
    11    32    33   ar
    12    33    34   ar
    13    34    23    1
    14    23     1    1
    15     1     2   ar
    16     2     3   ar
    17     3     4   ar
    18     4     7    1
    19     7     8    2
    20     8     9    1
    21     9    10    1
    22    10    11    1
    23    11    12    1
    24    12    13    1
    25    13    16    1
    26    16    17    1
    27    17    18    1
    28    17    20    1
    29    20    21    1
    30    13    14    1
    31    14    15    1
    32     4     5   ar
    33     5     6   ar
    34    34    24   ar
    35     6     1   ar
    36    33    26   ar
    37    15    10    1
    38    18    19    1
    39    21    22    1
