@<TRIPOS>MOLECULE
*****
 31 33 0 0 0
SMALL
GASTEIGER

@<TRIPOS>ATOM
      1 C         139.7591  142.0406  165.0785 C.ar    1  UNL1        0.1525
      2 C         140.6041  141.2783  164.1014 C.ar    1  UNL1        0.1337
      3 N         140.4529  141.5220  162.6291 N.ar    1  UNL1       -0.2316
      4 C         139.4566  142.5280  162.1338 C.ar    1  UNL1        0.1420
      5 C         138.6116  143.2903  163.1109 C.ar    1  UNL1        0.1508
      6 N         137.6152  144.2964  162.6157 N.pl3   1  UNL1       -0.3410
      7 N         138.7628  143.0466  164.5832 N.ar    1  UNL1       -0.2128
      8 H         137.5160  144.4564  161.6493 H       1  UNL1        0.1438
      9 H         137.0606  144.7967  163.2570 H       1  UNL1        0.1438
     10 C         140.6018  142.0393  170.7470 C.3     1  UNL1        0.0015
     11 C         140.2128  141.3095  169.4955 C.3     1  UNL1        0.0176
     12 C         139.7692  140.1968  168.5927 C.3     1  UNL1        0.0228
     13 C         139.6180  140.4405  167.1204 C.3     1  UNL1        0.0922
     14 N         139.9103  141.7969  166.5508 N.pl3   1  UNL1       -0.2920
     15 C         140.3540  142.9097  167.4535 C.3     1  UNL1        0.0922
     16 C         140.5052  142.6660  168.9258 C.3     1  UNL1        0.0228
     17 C         140.0555  140.2065  170.4997 C.3     1  UNL1        0.0652
     18 N         140.6489  140.3495  171.8699 N.3     1  UNL1       -0.3211
     19 H         141.6662  140.3722  171.7992 H       1  UNL1        0.1189
     20 H         140.3658  139.5578  172.4474 H       1  UNL1        0.1189
     21 S         139.3054  142.7717  160.6615 S.3     1  UNL1       -0.0638
     22 C         140.5143  143.0560  159.8203 C.ar    1  UNL1        0.0526
     23 C         141.0753  141.9883  158.9283 C.ar    1  UNL1        0.0096
     24 C         142.2842  142.2726  158.0871 C.ar    1  UNL1        0.0212
     25 C         142.9321  143.6245  158.1378 C.ar    1  UNL1        0.0988
     26 N         142.3712  144.6921  159.0296 N.ar    1  UNL1       -0.2394
     27 C         141.1622  144.4079  159.8709 C.ar    1  UNL1        0.1586
     28 C         140.6013  145.4755  160.7628 C.3     1  UNL1        0.4353
     29 F         140.0403  146.5431  161.6547 F       1  UNL1       -0.1644
     30 F         139.7220  145.9486  159.6434 F       1  UNL1       -0.1644
     31 F         141.4805  145.0024  161.8822 F       1  UNL1       -0.1644
@<TRIPOS>BOND
     1    10    11    1
     2    11    17    1
     3    17    18    1
     4    11    12    1
     5    12    13    1
     6    13    14    1
     7    14     1    1
     8     1     2   ar
     9     2     3   ar
    10     3     4   ar
    11     4    21    1
    12    21    22    1
    13    22    23   ar
    14    23    24   ar
    15    24    25   ar
    16    25    26   ar
    17    26    27   ar
    18    27    28    1
    19    28    29    1
    20    28    30    1
    21    28    31    1
    22     4     5   ar
    23     5     6    1
    24     5     7   ar
    25    14    15    1
    26    15    16    1
    27    16    11    1
    28     7     1   ar
    29    27    22   ar
    30    18    19    1
    31    18    20    1
    32     6     8    1
    33     6     9    1
@<TRIPOS>MOLECULE
*****
 31 33 0 0 0
SMALL
GASTEIGER

@<TRIPOS>ATOM
      1 C         140.4326  142.4685  165.2271 C.ar    1  UNL1        0.1525
      2 C         141.1276  142.9843  164.0020 C.ar    1  UNL1        0.1337
      3 N         140.4331  142.9452  162.6731 N.ar    1  UNL1       -0.2316
      4 C         139.0434  142.3902  162.5692 C.ar    1  UNL1        0.1420
      5 C         138.3484  141.8744  163.7942 C.ar    1  UNL1        0.1508
      6 N         136.9586  141.3194  163.6904 N.pl3   1  UNL1       -0.3410
      7 N         139.0429  141.9135  165.1232 N.ar    1  UNL1       -0.2128
      8 H         136.5027  141.2937  162.8182 H       1  UNL1        0.1438
      9 H         136.5024  140.9808  164.4945 H       1  UNL1        0.1438
     10 C         143.8761  142.3631  169.8067 C.3     1  UNL1        0.0015
     11 C         142.5163  142.5860  169.2138 C.3     1  UNL1        0.0176
     12 C         141.0540  142.9070  169.1221 C.3     1  UNL1        0.0228
     13 C         140.3594  142.8679  167.7932 C.3     1  UNL1        0.0922
     14 N         141.1272  142.5077  166.5560 N.pl3   1  UNL1       -0.2920
     15 C         142.5895  142.1866  166.6477 C.3     1  UNL1        0.0922
     16 C         143.2841  142.2258  167.9766 C.3     1  UNL1        0.0228
     17 C         142.2207  142.8688  170.6570 C.3     1  UNL1        0.0652
     18 N         141.1511  142.0950  171.3691 N.3     1  UNL1       -0.3211
     19 H         140.2426  142.3171  170.9621 H       1  UNL1        0.1189
     20 H         141.1512  142.3457  172.3578 H       1  UNL1        0.1189
     21 S         138.3488  142.3511  161.2403 S.3     1  UNL1       -0.0638
     22 C         139.0107  141.6909  160.0672 C.ar    1  UNL1        0.0526
     23 C         139.8169  142.5093  159.1025 C.ar    1  UNL1        0.0096
     24 C         140.4787  141.8492  157.9295 C.ar    1  UNL1        0.0212
     25 C         140.3346  140.3707  157.7211 C.ar    1  UNL1        0.0988
     26 N         139.5285  139.5524  158.6857 N.ar    1  UNL1       -0.2394
     27 C         138.8666  140.2125  159.8588 C.ar    1  UNL1        0.1586
     28 C         138.0605  139.3942  160.8235 C.3     1  UNL1        0.4353
     29 F         137.2545  138.5759  161.7881 F       1  UNL1       -0.1644
     30 F         136.8201  139.6811  160.0304 F       1  UNL1       -0.1644
     31 F         139.3009  139.1073  161.6165 F       1  UNL1       -0.1644
@<TRIPOS>BOND
     1    10    11    1
     2    11    17    1
     3    17    18    1
     4    11    12    1
     5    12    13    1
     6    13    14    1
     7    14     1    1
     8     1     2   ar
     9     2     3   ar
    10     3     4   ar
    11     4    21    1
    12    21    22    1
    13    22    23   ar
    14    23    24   ar
    15    24    25   ar
    16    25    26   ar
    17    26    27   ar
    18    27    28    1
    19    28    29    1
    20    28    30    1
    21    28    31    1
    22     4     5   ar
    23     5     6    1
    24     5     7   ar
    25    14    15    1
    26    15    16    1
    27    16    11    1
    28     7     1   ar
    29    27    22   ar
    30    18    19    1
    31    18    20    1
    32     6     8    1
    33     6     9    1
@<TRIPOS>MOLECULE
*****
 31 33 0 0 0
SMALL
GASTEIGER

@<TRIPOS>ATOM
      1 C         142.0372  142.6424  165.1698 C.ar    1  UNL1        0.1525
      2 C         141.5428  141.5480  164.2710 C.ar    1  UNL1        0.1337
      3 N         141.7088  141.6655  162.7849 N.ar    1  UNL1       -0.2316
      4 C         142.3692  142.8774  162.1975 C.ar    1  UNL1        0.1420
      5 C         142.8636  143.9718  163.0962 C.ar    1  UNL1        0.1508
      6 N         143.5241  145.1838  162.5088 N.pl3   1  UNL1       -0.3410
      7 N         142.6976  143.8543  164.5824 N.ar    1  UNL1       -0.2128
      8 H         143.6331  145.2609  161.5334 H       1  UNL1        0.1438
      9 H         143.8486  145.9020  163.0987 H       1  UNL1        0.1438
     10 C         140.4669  142.3663  170.6743 C.3     1  UNL1        0.0015
     11 C         141.5392  142.2898  169.6282 C.3     1  UNL1        0.0176
     12 C         142.8956  142.1242  169.0096 C.3     1  UNL1        0.0228
     13 C         143.0616  142.2418  167.5235 C.3     1  UNL1        0.0922
     14 N         141.8712  142.5248  166.6559 N.pl3   1  UNL1       -0.2920
     15 C         140.5148  142.6904  167.2745 C.3     1  UNL1        0.0922
     16 C         140.3488  142.5729  168.7606 C.3     1  UNL1        0.0228
     17 C         142.3573  142.0333  170.8591 C.3     1  UNL1        0.0652
     18 N         142.0459  140.8558  171.7346 N.3     1  UNL1       -0.3211
     19 H         141.1289  140.9834  172.1626 H       1  UNL1        0.1189
     20 H         142.7540  140.7782  172.4646 H       1  UNL1        0.1189
     21 S         142.5352  142.9949  160.7113 S.3     1  UNL1       -0.0638
     22 C         141.3639  142.7579  159.8048 C.ar    1  UNL1        0.0526
     23 C         141.3047  141.5165  158.9648 C.ar    1  UNL1        0.0096
     24 C         140.1334  141.2796  158.0582 C.ar    1  UNL1        0.0212
     25 C         139.0213  142.2840  157.9916 C.ar    1  UNL1        0.0988
     26 N         139.0805  143.5253  158.8315 N.ar    1  UNL1       -0.2394
     27 C         140.2518  143.7623  159.7381 C.ar    1  UNL1        0.1586
     28 C         140.3110  145.0037  160.5780 C.3     1  UNL1        0.4353
     29 F         140.3702  146.2450  161.4179 F       1  UNL1       -0.1644
     30 F         141.1524  145.6717  159.5314 F       1  UNL1       -0.1644
     31 F         139.4695  144.3356  161.6247 F       1  UNL1       -0.1644
@<TRIPOS>BOND
     1    10    11    1
     2    11    17    1
     3    17    18    1
     4    11    12    1
     5    12    13    1
     6    13    14    1
     7    14     1    1
     8     1     2   ar
     9     2     3   ar
    10     3     4   ar
    11     4    21    1
    12    21    22    1
    13    22    23   ar
    14    23    24   ar
    15    24    25   ar
    16    25    26   ar
    17    26    27   ar
    18    27    28    1
    19    28    29    1
    20    28    30    1
    21    28    31    1
    22     4     5   ar
    23     5     6    1
    24     5     7   ar
    25    14    15    1
    26    15    16    1
    27    16    11    1
    28     7     1   ar
    29    27    22   ar
    30    18    19    1
    31    18    20    1
    32     6     8    1
    33     6     9    1
@<TRIPOS>MOLECULE
*****
 31 33 0 0 0
SMALL
GASTEIGER

@<TRIPOS>ATOM
      1 C         141.2543  140.7425  165.0111 C.ar    1  UNL1        0.1525
      2 C         140.9909  141.6385  163.8374 C.ar    1  UNL1        0.1337
      3 N         140.8627  141.0543  162.4617 N.ar    1  UNL1       -0.2316
      4 C         140.9979  139.5741  162.2599 C.ar    1  UNL1        0.1420
      5 C         141.2613  138.6781  163.4337 C.ar    1  UNL1        0.1508
      6 N         141.3965  137.1979  163.2319 N.pl3   1  UNL1       -0.3410
      7 N         141.3895  139.2623  164.8093 N.ar    1  UNL1       -0.2128
      8 H         141.3124  136.8144  162.3290 H       1  UNL1        0.1438
      9 H         141.5694  136.6098  164.0023 H       1  UNL1        0.1438
     10 C         140.9813  143.5156  170.0188 C.3     1  UNL1        0.0015
     11 C         141.6389  142.4950  169.1379 C.3     1  UNL1        0.0176
     12 C         142.5932  141.4308  168.6831 C.3     1  UNL1        0.0228
     13 C         142.4649  140.8467  167.3075 C.3     1  UNL1        0.0922
     14 N         141.3825  141.3267  166.3867 N.pl3   1  UNL1       -0.2920
     15 C         140.4283  142.3908  166.8416 C.3     1  UNL1        0.0922
     16 C         140.5565  142.9750  168.2172 C.3     1  UNL1        0.0228
     17 C         142.4930  142.3694  170.3647 C.3     1  UNL1        0.0652
     18 N         143.3141  143.5355  170.8294 N.3     1  UNL1       -0.3211
     19 H         144.0364  143.7396  170.1387 H       1  UNL1        0.1189
     20 H         143.7519  143.3087  171.7223 H       1  UNL1        0.1189
     21 S         140.8697  138.9899  160.8843 S.3     1  UNL1       -0.0638
     22 C         141.6865  139.5443  159.7549 C.ar    1  UNL1        0.0526
     23 C         141.0540  140.4639  158.7527 C.ar    1  UNL1        0.0096
     24 C         141.8708  141.0182  157.6234 C.ar    1  UNL1        0.0212
     25 C         143.3201  140.6530  157.4962 C.ar    1  UNL1        0.0988
     26 N         143.9526  139.7334  158.4983 N.ar    1  UNL1       -0.2394
     27 C         143.1358  139.1790  159.6277 C.ar    1  UNL1        0.1586
     28 C         143.7682  138.2595  160.6299 C.3     1  UNL1        0.4353
     29 F         144.4007  137.3399  161.6321 F       1  UNL1       -0.1644
     30 F         144.2936  139.4441  161.3853 F       1  UNL1       -0.1644
     31 F         143.2429  137.0749  159.8745 F       1  UNL1       -0.1644
@<TRIPOS>BOND
     1    10    11    1
     2    11    17    1
     3    17    18    1
     4    11    12    1
     5    12    13    1
     6    13    14    1
     7    14     1    1
     8     1     2   ar
     9     2     3   ar
    10     3     4   ar
    11     4    21    1
    12    21    22    1
    13    22    23   ar
    14    23    24   ar
    15    24    25   ar
    16    25    26   ar
    17    26    27   ar
    18    27    28    1
    19    28    29    1
    20    28    30    1
    21    28    31    1
    22     4     5   ar
    23     5     6    1
    24     5     7   ar
    25    14    15    1
    26    15    16    1
    27    16    11    1
    28     7     1   ar
    29    27    22   ar
    30    18    19    1
    31    18    20    1
    32     6     8    1
    33     6     9    1
@<TRIPOS>MOLECULE
*****
 31 33 0 0 0
SMALL
GASTEIGER

@<TRIPOS>ATOM
      1 C         140.1946  140.8026  165.4219 C.ar    1  UNL1        0.1525
      2 C         141.1885  141.1106  164.3415 C.ar    1  UNL1        0.1337
      3 N         140.7126  141.4897  162.9705 N.ar    1  UNL1       -0.2316
      4 C         139.2428  141.5608  162.6798 C.ar    1  UNL1        0.1420
      5 C         138.2489  141.2529  163.7602 C.ar    1  UNL1        0.1508
      6 N         136.7790  141.3240  163.4695 N.pl3   1  UNL1       -0.3410
      7 N         138.7248  140.8738  165.1312 N.ar    1  UNL1       -0.2128
      8 H         136.4666  141.5728  162.5696 H       1  UNL1        0.1438
      9 H         136.1266  141.1218  164.1786 H       1  UNL1        0.1438
     10 C         142.7902  139.0027  170.2036 C.3     1  UNL1        0.0015
     11 C         141.6223  139.6653  169.5351 C.3     1  UNL1        0.0176
     12 C         140.3021  140.3564  169.3639 C.3     1  UNL1        0.0228
     13 C         139.8262  140.7355  167.9928 C.3     1  UNL1        0.0922
     14 N         140.6705  140.4235  166.7930 N.pl3   1  UNL1       -0.2920
     15 C         141.9907  139.7325  166.9642 C.3     1  UNL1        0.0922
     16 C         142.4666  139.3534  168.3352 C.3     1  UNL1        0.0228
     17 C         141.1836  139.7472  170.9672 C.3     1  UNL1        0.0652
     18 N         139.7753  139.3912  171.3416 N.3     1  UNL1       -0.3211
     19 H         139.1324  140.0661  170.9273 H       1  UNL1        0.1189
     20 H         139.6787  139.4087  172.3569 H       1  UNL1        0.1189
     21 S         138.7669  141.9399  161.3087 S.3     1  UNL1       -0.0638
     22 C         139.3102  143.1672  160.6389 C.ar    1  UNL1        0.0526
     23 C         139.7685  143.1023  159.2121 C.ar    1  UNL1        0.0096
     24 C         140.3118  144.3295  158.5423 C.ar    1  UNL1        0.0212
     25 C         140.3969  145.6217  159.2993 C.ar    1  UNL1        0.0988
     26 N         139.9386  145.6866  160.7260 N.ar    1  UNL1       -0.2394
     27 C         139.3953  144.4594  161.3959 C.ar    1  UNL1        0.1586
     28 C         138.9370  144.5243  162.8227 C.3     1  UNL1        0.4353
     29 F         138.4788  144.5893  164.2495 F       1  UNL1       -0.1644
     30 F         140.3640  144.6097  163.2771 F       1  UNL1       -0.1644
     31 F         137.5101  144.4389  162.3683 F       1  UNL1       -0.1644
@<TRIPOS>BOND
     1    10    11    1
     2    11    17    1
     3    17    18    1
     4    11    12    1
     5    12    13    1
     6    13    14    1
     7    14     1    1
     8     1     2   ar
     9     2     3   ar
    10     3     4   ar
    11     4    21    1
    12    21    22    1
    13    22    23   ar
    14    23    24   ar
    15    24    25   ar
    16    25    26   ar
    17    26    27   ar
    18    27    28    1
    19    28    29    1
    20    28    30    1
    21    28    31    1
    22     4     5   ar
    23     5     6    1
    24     5     7   ar
    25    14    15    1
    26    15    16    1
    27    16    11    1
    28     7     1   ar
    29    27    22   ar
    30    18    19    1
    31    18    20    1
    32     6     8    1
    33     6     9    1
@<TRIPOS>MOLECULE
*****
 31 33 0 0 0
SMALL
GASTEIGER

@<TRIPOS>ATOM
      1 C         139.6471  141.9850  165.6148 C.ar    1  UNL1        0.1525
      2 C         140.5459  142.8755  164.8090 C.ar    1  UNL1        0.1337
      3 N         140.2128  143.1810  163.3788 N.ar    1  UNL1       -0.2316
      4 C         138.9808  142.5961  162.7542 C.ar    1  UNL1        0.1420
      5 C         138.0819  141.7057  163.5600 C.ar    1  UNL1        0.1508
      6 N         136.8499  141.1208  162.9355 N.pl3   1  UNL1       -0.3410
      7 N         138.4151  141.4002  164.9902 N.ar    1  UNL1       -0.2128
      8 H         136.6312  141.3213  161.9967 H       1  UNL1        0.1438
      9 H         136.2599  140.5364  163.4643 H       1  UNL1        0.1438
     10 C         140.4957  139.9646  170.9100 C.3     1  UNL1        0.0015
     11 C         140.6466  141.0684  169.9055 C.3     1  UNL1        0.0176
     12 C         141.0272  142.3929  169.3133 C.3     1  UNL1        0.0228
     13 C         140.6940  142.6984  167.8830 C.3     1  UNL1        0.0922
     14 N         139.9803  141.6795  167.0450 N.pl3   1  UNL1       -0.2920
     15 C         139.5997  140.3550  167.6373 C.3     1  UNL1        0.0922
     16 C         139.9328  140.0495  169.0676 C.3     1  UNL1        0.0228
     17 C         141.3080  141.7041  171.0924 C.3     1  UNL1        0.0652
     18 N         142.2125  140.8919  171.9712 N.3     1  UNL1       -0.3211
     19 H         141.6686  140.1707  172.4448 H       1  UNL1        0.1189
     20 H         142.6482  141.4998  172.6648 H       1  UNL1        0.1189
     21 S         138.6476  142.9017  161.3240 S.3     1  UNL1       -0.0638
     22 C         139.3250  142.1474  160.2185 C.ar    1  UNL1        0.0526
     23 C         138.9127  140.7387  159.9093 C.ar    1  UNL1        0.0096
     24 C         139.5902  139.9845  158.8038 C.ar    1  UNL1        0.0212
     25 C         140.6799  140.6389  158.0074 C.ar    1  UNL1        0.0988
     26 N         141.0922  142.0476  158.3166 N.ar    1  UNL1       -0.2394
     27 C         140.4148  142.8019  159.4221 C.ar    1  UNL1        0.1586
     28 C         140.8271  144.2105  159.7313 C.3     1  UNL1        0.4353
     29 F         141.2394  145.6192  160.0404 F       1  UNL1       -0.1644
     30 F         139.7752  144.7242  158.7935 F       1  UNL1       -0.1644
     31 F         141.8790  143.6968  160.6691 F       1  UNL1       -0.1644
@<TRIPOS>BOND
     1    10    11    1
     2    11    17    1
     3    17    18    1
     4    11    12    1
     5    12    13    1
     6    13    14    1
     7    14     1    1
     8     1     2   ar
     9     2     3   ar
    10     3     4   ar
    11     4    21    1
    12    21    22    1
    13    22    23   ar
    14    23    24   ar
    15    24    25   ar
    16    25    26   ar
    17    26    27   ar
    18    27    28    1
    19    28    29    1
    20    28    30    1
    21    28    31    1
    22     4     5   ar
    23     5     6    1
    24     5     7   ar
    25    14    15    1
    26    15    16    1
    27    16    11    1
    28     7     1   ar
    29    27    22   ar
    30    18    19    1
    31    18    20    1
    32     6     8    1
    33     6     9    1
@<TRIPOS>MOLECULE
*****
 31 33 0 0 0
SMALL
GASTEIGER

@<TRIPOS>ATOM
      1 C         141.6183  142.4958  164.6584 C.ar    1  UNL1        0.1525
      2 C         141.1369  141.2575  163.9620 C.ar    1  UNL1        0.1337
      3 N         141.0886  141.2105  162.4636 N.ar    1  UNL1       -0.2316
      4 C         141.5215  142.4018  161.6615 C.ar    1  UNL1        0.1420
      5 C         142.0029  143.6400  162.3578 C.ar    1  UNL1        0.1508
      6 N         142.4359  144.8313  161.5557 N.pl3   1  UNL1       -0.3410
      7 N         142.0513  143.6870  163.8563 N.ar    1  UNL1       -0.2128
      8 H         142.4041  144.8005  160.5722 H       1  UNL1        0.1438
      9 H         142.7518  145.6441  162.0128 H       1  UNL1        0.1438
     10 C         140.8674  142.9147  170.3243 C.3     1  UNL1        0.0015
     11 C         141.7634  142.6368  169.1539 C.3     1  UNL1        0.0176
     12 C         142.9963  142.2873  168.3743 C.3     1  UNL1        0.0228
     13 C         142.9479  142.2403  166.8758 C.3     1  UNL1        0.0922
     14 N         141.6667  142.5428  166.1569 N.pl3   1  UNL1       -0.2920
     15 C         140.4338  142.8922  166.9365 C.3     1  UNL1        0.0922
     16 C         140.4822  142.9392  168.4350 C.3     1  UNL1        0.0228
     17 C         142.7336  142.4308  170.2793 C.3     1  UNL1        0.0652
     18 N         142.2328  142.3057  171.6877 N.3     1  UNL1       -0.3211
     19 H         141.8169  143.1899  171.9804 H       1  UNL1        0.1189
     20 H         143.0106  142.0747  172.3058 H       1  UNL1        0.1189
     21 S         141.4731  142.3547  160.1630 S.3     1  UNL1       -0.0638
     22 C         141.9214  141.1214  159.4364 C.ar    1  UNL1        0.0526
     23 C         140.9068  140.1435  158.9221 C.ar    1  UNL1        0.0096
     24 C         141.3550  138.9102  158.1956 C.ar    1  UNL1        0.0212
     25 C         142.8177  138.6546  157.9833 C.ar    1  UNL1        0.0988
     26 N         143.8323  139.6324  158.4976 N.ar    1  UNL1       -0.2394
     27 C         143.3841  140.8659  159.2242 C.ar    1  UNL1        0.1586
     28 C         144.3987  141.8437  159.7384 C.3     1  UNL1        0.4353
     29 F         145.4132  142.8215  160.2527 F       1  UNL1       -0.1644
     30 F         144.4791  141.0819  161.0281 F       1  UNL1       -0.1644
     31 F         144.3182  142.6054  158.4488 F       1  UNL1       -0.1644
@<TRIPOS>BOND
     1    10    11    1
     2    11    17    1
     3    17    18    1
     4    11    12    1
     5    12    13    1
     6    13    14    1
     7    14     1    1
     8     1     2   ar
     9     2     3   ar
    10     3     4   ar
    11     4    21    1
    12    21    22    1
    13    22    23   ar
    14    23    24   ar
    15    24    25   ar
    16    25    26   ar
    17    26    27   ar
    18    27    28    1
    19    28    29    1
    20    28    30    1
    21    28    31    1
    22     4     5   ar
    23     5     6    1
    24     5     7   ar
    25    14    15    1
    26    15    16    1
    27    16    11    1
    28     7     1   ar
    29    27    22   ar
    30    18    19    1
    31    18    20    1
    32     6     8    1
    33     6     9    1
@<TRIPOS>MOLECULE
*****
 31 33 0 0 0
SMALL
GASTEIGER

@<TRIPOS>ATOM
      1 C         141.7212  142.5633  164.9371 C.ar    1  UNL1        0.1525
      2 C         140.7021  142.1209  163.9293 C.ar    1  UNL1        0.1337
      3 N         140.6725  142.7486  162.5673 N.ar    1  UNL1       -0.2316
      4 C         141.6621  143.8188  162.2131 C.ar    1  UNL1        0.1420
      5 C         142.6812  144.2612  163.2209 C.ar    1  UNL1        0.1508
      6 N         143.6708  145.3314  162.8668 N.pl3   1  UNL1       -0.3410
      7 N         142.7107  143.6334  164.5829 N.ar    1  UNL1       -0.2128
      8 H         143.6514  145.7434  161.9728 H       1  UNL1        0.1438
      9 H         144.3397  145.6218  163.5282 H       1  UNL1        0.1438
     10 C         140.9538  139.8316  169.9162 C.3     1  UNL1        0.0015
     11 C         141.8098  140.6799  169.0231 C.3     1  UNL1        0.0176
     12 C         142.9788  141.4889  168.5446 C.3     1  UNL1        0.0228
     13 C         142.9493  142.1166  167.1826 C.3     1  UNL1        0.0922
     14 N         141.7507  141.9355  166.2991 N.pl3   1  UNL1       -0.2920
     15 C         140.5817  141.1266  166.7776 C.3     1  UNL1        0.0922
     16 C         140.6113  140.4988  168.1396 C.3     1  UNL1        0.0228
     17 C         142.7111  140.5665  170.2168 C.3     1  UNL1        0.0652
     18 N         143.1976  139.2199  170.6639 N.3     1  UNL1       -0.3211
     19 H         142.4075  138.6651  170.9932 H       1  UNL1        0.1189
     20 H         143.8708  139.3358  171.4214 H       1  UNL1        0.1189
     21 S         141.6325  144.4466  160.8511 S.3     1  UNL1       -0.0638
     22 C         142.4001  143.8253  159.7221 C.ar    1  UNL1        0.0526
     23 C         143.4306  142.7726  160.0055 C.ar    1  UNL1        0.0096
     24 C         144.1982  142.1513  158.8765 C.ar    1  UNL1        0.0212
     25 C         143.9354  142.5826  157.4641 C.ar    1  UNL1        0.0988
     26 N         142.9050  143.6351  157.1806 N.ar    1  UNL1       -0.2394
     27 C         142.1373  144.2565  158.3097 C.ar    1  UNL1        0.1586
     28 C         141.1069  145.3091  158.0263 C.3     1  UNL1        0.4353
     29 F         140.0765  146.3616  157.7429 F       1  UNL1       -0.1644
     30 F         140.0342  144.2607  158.0330 F       1  UNL1       -0.1644
     31 F         142.1797  146.3574  158.0195 F       1  UNL1       -0.1644
@<TRIPOS>BOND
     1    10    11    1
     2    11    17    1
     3    17    18    1
     4    11    12    1
     5    12    13    1
     6    13    14    1
     7    14     1    1
     8     1     2   ar
     9     2     3   ar
    10     3     4   ar
    11     4    21    1
    12    21    22    1
    13    22    23   ar
    14    23    24   ar
    15    24    25   ar
    16    25    26   ar
    17    26    27   ar
    18    27    28    1
    19    28    29    1
    20    28    30    1
    21    28    31    1
    22     4     5   ar
    23     5     6    1
    24     5     7   ar
    25    14    15    1
    26    15    16    1
    27    16    11    1
    28     7     1   ar
    29    27    22   ar
    30    18    19    1
    31    18    20    1
    32     6     8    1
    33     6     9    1
@<TRIPOS>MOLECULE
*****
 31 33 0 0 0
SMALL
GASTEIGER

@<TRIPOS>ATOM
      1 C         144.0738  142.7334  160.0264 C.ar    1  UNL1        0.1525
      2 C         144.6161  142.2532  161.3399 C.ar    1  UNL1        0.1337
      3 N         144.0466  142.7793  162.6239 N.ar    1  UNL1       -0.2316
      4 C         142.9347  143.7856  162.5945 C.ar    1  UNL1        0.1420
      5 C         142.3923  144.2659  161.2811 C.ar    1  UNL1        0.1508
      6 N         141.2804  145.2722  161.2516 N.pl3   1  UNL1       -0.3410
      7 N         142.9619  143.7397  159.9970 N.ar    1  UNL1       -0.2128
      8 H         140.9065  145.6176  162.0944 H       1  UNL1        0.1438
      9 H         140.9244  145.5874  160.3895 H       1  UNL1        0.1438
     10 C         145.5360  140.0716  155.1665 C.3     1  UNL1        0.0015
     11 C         145.7825  141.1551  156.1742 C.3     1  UNL1        0.0176
     12 C         146.4175  142.3347  156.8487 C.3     1  UNL1        0.0228
     13 C         145.8480  142.8609  158.1328 C.3     1  UNL1        0.0922
     14 N         144.6433  142.2073  158.7424 N.pl3   1  UNL1       -0.2920
     15 C         144.0083  141.0276  158.0679 C.3     1  UNL1        0.0922
     16 C         144.5778  140.5015  156.7838 C.3     1  UNL1        0.0228
     17 C         146.9016  141.4324  155.2146 C.3     1  UNL1        0.0652
     18 N         148.3088  141.5558  155.7191 N.3     1  UNL1       -0.3211
     19 H         148.3856  142.3808  156.3140 H       1  UNL1        0.1189
     20 H         148.9467  141.6462  154.9284 H       1  UNL1        0.1189
     21 S         142.3651  144.3118  163.8786 S.3     1  UNL1       -0.0638
     22 C         141.7294  143.3706  164.8584 C.ar    1  UNL1        0.0526
     23 C         142.5877  142.5446  165.7701 C.ar    1  UNL1        0.0096
     24 C         141.9520  141.6034  166.7499 C.ar    1  UNL1        0.0212
     25 C         140.4580  141.4882  166.8180 C.ar    1  UNL1        0.0988
     26 N         139.5997  142.3141  165.9063 N.ar    1  UNL1       -0.2394
     27 C         140.2354  143.2553  164.9265 C.ar    1  UNL1        0.1586
     28 C         139.3771  144.0812  164.0148 C.3     1  UNL1        0.4353
     29 F         138.5188  144.9071  163.1032 F       1  UNL1       -0.1644
     30 F         139.2586  145.1322  165.0785 F       1  UNL1       -0.1644
     31 F         139.4955  143.0303  162.9512 F       1  UNL1       -0.1644
@<TRIPOS>BOND
     1    10    11    1
     2    11    17    1
     3    17    18    1
     4    11    12    1
     5    12    13    1
     6    13    14    1
     7    14     1    1
     8     1     2   ar
     9     2     3   ar
    10     3     4   ar
    11     4    21    1
    12    21    22    1
    13    22    23   ar
    14    23    24   ar
    15    24    25   ar
    16    25    26   ar
    17    26    27   ar
    18    27    28    1
    19    28    29    1
    20    28    30    1
    21    28    31    1
    22     4     5   ar
    23     5     6    1
    24     5     7   ar
    25    14    15    1
    26    15    16    1
    27    16    11    1
    28     7     1   ar
    29    27    22   ar
    30    18    19    1
    31    18    20    1
    32     6     8    1
    33     6     9    1
