@<TRIPOS>MOLECULE
*****
 27 31 0 0 0
SMALL
GASTEIGER

@<TRIPOS>ATOM
      1 C         140.7114  145.1761  162.5084 C.3     1  UNL1        0.0175
      2 C         140.2808  143.9167  163.2003 C.3     1  UNL1        0.0592
      3 C         140.5011  143.7587  164.6756 C.3     1  UNL1        0.0434
      4 C         140.0704  142.4994  165.3676 C.2     1  UNL1       -0.0041
      5 C         139.4195  141.3982  164.5842 C.2     1  UNL1        0.0798
      6 N         139.1029  140.2797  165.5322 N.2     1  UNL1       -0.2519
      7 C         139.5581  140.6896  166.9014 C.2     1  UNL1        0.0636
      8 C         139.5054  139.9909  168.2277 C.3     1  UNL1        0.0836
      9 C         140.0507  140.6641  169.4522 C.2     1  UNL1        0.0414
     10 CL        139.9980  139.9654  170.7785 Cl      1  UNL1       -0.0865
     11 C         140.6487  142.0360  169.3505 C.2     1  UNL1        0.0075
     12 C         140.7014  142.7347  168.0242 C.2     1  UNL1        0.0015
     13 C         140.1561  142.0615  166.7997 C.2     1  UNL1        0.0112
     14 C         139.1992  141.5563  163.1089 C.3     1  UNL1        0.1673
     15 N         139.6298  142.8155  162.4170 N.3     1  UNL1       -0.2858
     16 C         138.7183  140.2470  163.6608 C.2     1  UNL1        0.2481
     17 O         138.6426  139.5075  164.9637 O.2     1  UNL1       -0.2726
     18 N         138.1368  139.4525  162.5292 N.am    1  UNL1       -0.2825
     19 C         138.2582  140.2708  161.2779 C.ar    1  UNL1        0.0484
     20 C         137.8557  140.0000  159.8586 C.ar    1  UNL1        0.0153
     21 C         138.1098  141.0294  158.7975 C.ar    1  UNL1        0.0126
     22 C         138.7664  142.3295  159.1558 C.ar    1  UNL1        0.0575
     23 CL        139.0206  143.3590  158.0947 Cl      1  UNL1       -0.0823
     24 C         139.1689  142.6004  160.5752 C.ar    1  UNL1        0.0104
     25 C         138.9148  141.5710  161.6362 C.ar    1  UNL1        0.0184
     26 H         138.7960  143.2143  161.9855 H       1  UNL1        0.1242
     27 H         137.7443  138.5521  162.5959 H       1  UNL1        0.1549
@<TRIPOS>BOND
     1     2     1    1
     2     2     3    1
     3     3     4    1
     4     4     5    2
     5     5     6    1
     6     6     7    2
     7     7     8    1
     8     8     9    1
     9     9    10    1
    10     9    11    2
    11    11    12    1
    12    12    13    2
    13     5    14    1
    14    14    15    1
    15    14    16    1
    16    16    17    2
    17    16    18   am
    18    18    19    1
    19    19    20   ar
    20    20    21   ar
    21    21    22   ar
    22    22    23    1
    23    22    24   ar
    24    24    25   ar
    25    15     2    1
    26    25    19   ar
    27    13     4    1
    28    25    14    1
    29    13     7    1
    30    15    26    1
    31    18    27    1
@<TRIPOS>MOLECULE
*****
 27 31 0 0 0
SMALL
GASTEIGER

@<TRIPOS>ATOM
      1 C         143.7751  138.3539  162.1102 C.3     1  UNL1        0.0175
      2 C         142.6539  138.8017  163.0005 C.3     1  UNL1        0.0592
      3 C         142.8607  138.8823  164.4841 C.3     1  UNL1        0.0434
      4 C         141.7396  139.3300  165.3744 C.2     1  UNL1       -0.0041
      5 C         140.4118  139.6973  164.7811 C.2     1  UNL1        0.0798
      6 N         139.4994  140.1009  165.9013 N.2     1  UNL1       -0.2519
      7 C         140.2634  139.9831  167.1868 C.2     1  UNL1        0.0636
      8 C         139.8772  140.2481  168.6118 C.3     1  UNL1        0.0836
      9 C         140.8756  140.0366  169.7111 C.2     1  UNL1        0.0414
     10 CL        140.4895  140.3016  171.1361 Cl      1  UNL1       -0.0865
     11 C         142.2602  139.5602  169.3854 C.2     1  UNL1        0.0075
     12 C         142.6463  139.2953  167.9604 C.2     1  UNL1        0.0015
     13 C         141.6480  139.5067  166.8611 C.2     1  UNL1        0.0112
     14 C         140.2050  139.6167  163.2976 C.3     1  UNL1        0.1673
     15 N         141.3261  139.1689  162.4073 N.3     1  UNL1       -0.2858
     16 C         138.9974  140.0794  164.0577 C.2     1  UNL1        0.2481
     17 O         138.5634  140.3581  165.4663 O.2     1  UNL1       -0.2726
     18 N         137.8976  140.3344  163.0701 N.am    1  UNL1       -0.2825
     19 C         138.4255  140.0293  161.6996 C.ar    1  UNL1        0.0484
     20 C         137.7919  140.0981  160.3417 C.ar    1  UNL1        0.0153
     21 C         138.5844  139.7234  159.1245 C.ar    1  UNL1        0.0126
     22 C         140.0103  139.2799  159.2651 C.ar    1  UNL1        0.0575
     23 CL        140.8028  138.9051  158.0479 Cl      1  UNL1       -0.0823
     24 C         140.6439  139.2111  160.6230 C.ar    1  UNL1        0.0104
     25 C         139.8515  139.5858  161.8402 C.ar    1  UNL1        0.0184
     26 H         141.4981  139.9268  161.7467 H       1  UNL1        0.1242
     27 H         136.9889  140.6470  163.2838 H       1  UNL1        0.1549
@<TRIPOS>BOND
     1     2     1    1
     2     2     3    1
     3     3     4    1
     4     4     5    2
     5     5     6    1
     6     6     7    2
     7     7     8    1
     8     8     9    1
     9     9    10    1
    10     9    11    2
    11    11    12    1
    12    12    13    2
    13     5    14    1
    14    14    15    1
    15    14    16    1
    16    16    17    2
    17    16    18   am
    18    18    19    1
    19    19    20   ar
    20    20    21   ar
    21    21    22   ar
    22    22    23    1
    23    22    24   ar
    24    24    25   ar
    25    15     2    1
    26    25    19   ar
    27    13     4    1
    28    25    14    1
    29    13     7    1
    30    15    26    1
    31    18    27    1
@<TRIPOS>MOLECULE
*****
 27 31 0 0 0
SMALL
GASTEIGER

@<TRIPOS>ATOM
      1 C         138.6586  144.7574  164.6729 C.3     1  UNL1        0.0175
      2 C         139.7080  143.6999  164.8477 C.3     1  UNL1        0.0592
      3 C         139.8184  142.9605  166.1482 C.3     1  UNL1        0.0434
      4 C         140.8677  141.9030  166.3229 C.2     1  UNL1       -0.0041
      5 C         141.8066  141.5848  165.1972 C.2     1  UNL1        0.0798
      6 N         142.7335  140.4999  165.6594 N.2     1  UNL1       -0.2519
      7 C         142.3675  140.1475  167.0708 C.2     1  UNL1        0.0636
      8 C         142.9353  139.1491  168.0355 C.3     1  UNL1        0.0836
      9 C         142.3500  139.0179  169.4103 C.2     1  UNL1        0.0414
     10 CL        142.9177  138.0194  170.3750 Cl      1  UNL1       -0.0865
     11 C         141.1968  139.8851  169.8203 C.2     1  UNL1        0.0075
     12 C         140.6290  140.8835  168.8556 C.2     1  UNL1        0.0015
     13 C         141.2144  141.0147  167.4809 C.2     1  UNL1        0.0112
     14 C         141.6961  142.3241  163.8967 C.3     1  UNL1        0.1673
     15 N         140.6468  143.3816  163.7220 N.3     1  UNL1       -0.2858
     16 C         142.7897  141.2978  163.9241 C.2     1  UNL1        0.2481
     17 O         143.3922  140.2851  164.8523 O.2     1  UNL1       -0.2726
     18 N         143.4758  141.3157  162.5903 N.am    1  UNL1       -0.2825
     19 C         142.8061  142.3531  161.7386 C.ar    1  UNL1        0.0484
     20 C         143.0559  142.8107  160.3321 C.ar    1  UNL1        0.0153
     21 C         142.2056  143.8917  159.7331 C.ar    1  UNL1        0.0126
     22 C         141.1058  144.5149  160.5404 C.ar    1  UNL1        0.0575
     23 CL        140.2556  145.5958  159.9414 Cl      1  UNL1       -0.0823
     24 C         140.8561  144.0572  161.9469 C.ar    1  UNL1        0.0104
     25 C         141.7063  142.9764  162.5460 C.ar    1  UNL1        0.0184
     26 H         140.0709  143.0969  162.9297 H       1  UNL1        0.1242
     27 H         144.2326  140.7465  162.3211 H       1  UNL1        0.1549
@<TRIPOS>BOND
     1     2     1    1
     2     2     3    1
     3     3     4    1
     4     4     5    2
     5     5     6    1
     6     6     7    2
     7     7     8    1
     8     8     9    1
     9     9    10    1
    10     9    11    2
    11    11    12    1
    12    12    13    2
    13     5    14    1
    14    14    15    1
    15    14    16    1
    16    16    17    2
    17    16    18   am
    18    18    19    1
    19    19    20   ar
    20    20    21   ar
    21    21    22   ar
    22    22    23    1
    23    22    24   ar
    24    24    25   ar
    25    15     2    1
    26    25    19   ar
    27    13     4    1
    28    25    14    1
    29    13     7    1
    30    15    26    1
    31    18    27    1
@<TRIPOS>MOLECULE
*****
 27 31 0 0 0
SMALL
GASTEIGER

@<TRIPOS>ATOM
      1 C         137.8397  138.8390  161.9823 C.3     1  UNL1        0.0175
      2 C         138.4889  139.9024  162.8178 C.3     1  UNL1        0.0592
      3 C         138.6443  139.7037  164.2964 C.3     1  UNL1        0.0434
      4 C         139.2935  140.7669  165.1319 C.2     1  UNL1       -0.0041
      5 C         139.7872  142.0289  164.4887 C.2     1  UNL1        0.0798
      6 N         140.3816  142.8936  165.5606 N.2     1  UNL1       -0.2519
      7 C         140.2552  142.1660  166.8663 C.2     1  UNL1        0.0636
      8 C         140.6655  142.5306  168.2622 C.3     1  UNL1        0.0836
      9 C         140.4034  141.5808  169.3932 C.2     1  UNL1        0.0414
     10 CL        140.8137  141.9453  170.7892 Cl      1  UNL1       -0.0865
     11 C         139.7308  140.2664  169.1282 C.2     1  UNL1        0.0075
     12 C         139.3205  139.9019  167.7323 C.2     1  UNL1        0.0015
     13 C         139.5826  140.8517  166.6013 C.2     1  UNL1        0.0112
     14 C         139.6319  142.2276  163.0100 C.3     1  UNL1        0.1673
     15 N         138.9827  141.1643  162.1746 N.3     1  UNL1       -0.2858
     16 C         140.2979  143.3732  163.7129 C.2     1  UNL1        0.2481
     17 O         140.7268  143.7831  165.0906 O.2     1  UNL1       -0.2726
     18 N         140.6240  144.4191  162.6884 N.am    1  UNL1       -0.2825
     19 C         140.1595  143.9199  161.3523 C.ar    1  UNL1        0.0484
     20 C         140.2156  144.5238  159.9804 C.ar    1  UNL1        0.0153
     21 C         139.6586  143.7731  158.8072 C.ar    1  UNL1        0.0126
     22 C         139.0454  142.4187  159.0060 C.ar    1  UNL1        0.0575
     23 CL        138.4884  141.6680  157.8329 Cl      1  UNL1       -0.0823
     24 C         138.9893  141.8149  160.3780 C.ar    1  UNL1        0.0104
     25 C         139.5463  142.5655  161.5511 C.ar    1  UNL1        0.0184
     26 H         139.6646  140.8875  161.4683 H       1  UNL1        0.1242
     27 H         141.0654  145.2818  162.8623 H       1  UNL1        0.1549
@<TRIPOS>BOND
     1     2     1    1
     2     2     3    1
     3     3     4    1
     4     4     5    2
     5     5     6    1
     6     6     7    2
     7     7     8    1
     8     8     9    1
     9     9    10    1
    10     9    11    2
    11    11    12    1
    12    12    13    2
    13     5    14    1
    14    14    15    1
    15    14    16    1
    16    16    17    2
    17    16    18   am
    18    18    19    1
    19    19    20   ar
    20    20    21   ar
    21    21    22   ar
    22    22    23    1
    23    22    24   ar
    24    24    25   ar
    25    15     2    1
    26    25    19   ar
    27    13     4    1
    28    25    14    1
    29    13     7    1
    30    15    26    1
    31    18    27    1
@<TRIPOS>MOLECULE
*****
 27 31 0 0 0
SMALL
GASTEIGER

@<TRIPOS>ATOM
      1 C         138.4407  145.1021  165.8622 C.3     1  UNL1        0.0175
      2 C         139.4551  144.4610  164.9621 C.3     1  UNL1        0.0592
      3 C         139.5614  144.8880  163.5281 C.3     1  UNL1        0.0434
      4 C         140.5758  144.2470  162.6279 C.2     1  UNL1       -0.0041
      5 C         141.4837  143.1790  163.1618 C.2     1  UNL1        0.0798
      6 N         142.3796  142.7315  162.0451 N.2     1  UNL1       -0.2519
      7 C         142.0254  143.5229  160.8211 C.2     1  UNL1        0.0636
      8 C         142.5740  143.5116  159.4251 C.3     1  UNL1        0.0836
      9 C         142.0077  144.4370  158.3893 C.2     1  UNL1        0.0414
     10 CL        142.5563  144.4258  156.9932 Cl      1  UNL1       -0.0865
     11 C         140.8929  145.3737  158.7495 C.2     1  UNL1        0.0075
     12 C         140.3443  145.3849  160.1455 C.2     1  UNL1        0.0015
     13 C         140.9105  144.4595  161.1813 C.2     1  UNL1        0.0112
     14 C         141.3773  142.7520  164.5958 C.3     1  UNL1        0.1673
     15 N         140.3630  143.3930  165.4960 N.3     1  UNL1       -0.2858
     16 C         142.4344  142.0243  163.8194 C.2     1  UNL1        0.2481
     17 O         143.0166  141.9755  162.4378 O.2     1  UNL1       -0.2726
     18 N         143.0980  141.0467  164.7436 N.am    1  UNL1       -0.2825
     19 C         142.4510  141.1703  166.0911 C.ar    1  UNL1        0.0484
     20 C         142.6928  140.4593  167.3896 C.ar    1  UNL1        0.0153
     21 C         141.8710  140.8023  168.5968 C.ar    1  UNL1        0.0126
     22 C         140.8076  141.8561  168.5055 C.ar    1  UNL1        0.0575
     23 CL        139.9859  142.1991  169.7127 Cl      1  UNL1       -0.0823
     24 C         140.5658  142.5671  167.2071 C.ar    1  UNL1        0.0104
     25 C         141.3875  142.2242  165.9999 C.ar    1  UNL1        0.0184
     26 H         140.8784  143.8061  166.2732 H       1  UNL1        0.1242
     27 H         143.8297  140.4320  164.5071 H       1  UNL1        0.1549
@<TRIPOS>BOND
     1     2     1    1
     2     2     3    1
     3     3     4    1
     4     4     5    2
     5     5     6    1
     6     6     7    2
     7     7     8    1
     8     8     9    1
     9     9    10    1
    10     9    11    2
    11    11    12    1
    12    12    13    2
    13     5    14    1
    14    14    15    1
    15    14    16    1
    16    16    17    2
    17    16    18   am
    18    18    19    1
    19    19    20   ar
    20    20    21   ar
    21    21    22   ar
    22    22    23    1
    23    22    24   ar
    24    24    25   ar
    25    15     2    1
    26    25    19   ar
    27    13     4    1
    28    25    14    1
    29    13     7    1
    30    15    26    1
    31    18    27    1
@<TRIPOS>MOLECULE
*****
 27 31 0 0 0
SMALL
GASTEIGER

@<TRIPOS>ATOM
      1 C         144.3568  141.7158  162.0816 C.3     1  UNL1        0.0175
      2 C         143.2483  142.6291  161.6490 C.3     1  UNL1        0.0592
      3 C         143.1997  143.1332  160.2370 C.3     1  UNL1        0.0434
      4 C         142.0913  144.0465  159.8044 C.2     1  UNL1       -0.0041
      5 C         141.0314  144.4557  160.7838 C.2     1  UNL1        0.0798
      6 N         140.0685  145.3605  160.0735 N.2     1  UNL1       -0.2519
      7 C         140.5334  145.5104  158.6553 C.2     1  UNL1        0.0636
      8 C         139.9799  146.2815  157.4938 C.3     1  UNL1        0.0836
      9 C         140.6765  146.2405  156.1661 C.2     1  UNL1        0.0414
     10 CL        140.1229  147.0115  155.0045 Cl      1  UNL1       -0.0865
     11 C         141.9266  145.4284  155.9997 C.2     1  UNL1        0.0075
     12 C         142.4802  144.6573  157.1612 C.2     1  UNL1        0.0015
     13 C         141.7835  144.6983  158.4890 C.2     1  UNL1        0.0112
     14 C         141.0799  143.9516  162.1957 C.3     1  UNL1        0.1673
     15 N         142.1884  143.0384  162.6283 N.3     1  UNL1       -0.2858
     16 C         139.9164  144.8542  161.9098 C.2     1  UNL1        0.2481
     17 O         139.3240  145.6420  160.7791 O.2     1  UNL1       -0.2726
     18 N         139.1148  144.9906  163.1702 N.am    1  UNL1       -0.2825
     19 C         139.7828  144.1722  164.2352 C.ar    1  UNL1        0.0484
     20 C         139.4421  143.9288  165.6755 C.ar    1  UNL1        0.0153
     21 C         140.3159  143.0432  166.5136 C.ar    1  UNL1        0.0126
     22 C         141.5303  142.4012  165.9113 C.ar    1  UNL1        0.0575
     23 CL        142.4042  141.5156  166.7494 Cl      1  UNL1       -0.0823
     24 C         141.8711  142.6446  164.4710 C.ar    1  UNL1        0.0104
     25 C         140.9973  143.5301  163.6329 C.ar    1  UNL1        0.0184
     26 H         141.7495  142.1805  162.9628 H       1  UNL1        0.1242
     27 H         138.2943  145.5235  163.2794 H       1  UNL1        0.1549
@<TRIPOS>BOND
     1     2     1    1
     2     2     3    1
     3     3     4    1
     4     4     5    2
     5     5     6    1
     6     6     7    2
     7     7     8    1
     8     8     9    1
     9     9    10    1
    10     9    11    2
    11    11    12    1
    12    12    13    2
    13     5    14    1
    14    14    15    1
    15    14    16    1
    16    16    17    2
    17    16    18   am
    18    18    19    1
    19    19    20   ar
    20    20    21   ar
    21    21    22   ar
    22    22    23    1
    23    22    24   ar
    24    24    25   ar
    25    15     2    1
    26    25    19   ar
    27    13     4    1
    28    25    14    1
    29    13     7    1
    30    15    26    1
    31    18    27    1
@<TRIPOS>MOLECULE
*****
 27 31 0 0 0
SMALL
GASTEIGER

@<TRIPOS>ATOM
      1 C         137.6661  138.3582  166.9026 C.3     1  UNL1        0.0175
      2 C         138.7623  138.8577  166.0087 C.3     1  UNL1        0.0592
      3 C         138.6818  138.6355  164.5274 C.3     1  UNL1        0.0434
      4 C         139.7779  139.1350  163.6335 C.2     1  UNL1       -0.0041
      5 C         140.9545  139.8566  164.2209 C.2     1  UNL1        0.0798
      6 N         141.8757  140.2318  163.0982 N.2     1  UNL1       -0.2519
      7 C         141.2685  139.7421  161.8169 C.2     1  UNL1        0.0636
      8 C         141.7287  139.8260  160.3918 C.3     1  UNL1        0.0836
      9 C         140.8924  139.2319  159.2975 C.2     1  UNL1        0.0414
     10 CL        141.3526  139.3157  157.8722 Cl      1  UNL1       -0.0865
     11 C         139.5958  138.5540  159.6283 C.2     1  UNL1        0.0075
     12 C         139.1356  138.4702  161.0535 C.2     1  UNL1        0.0015
     13 C         139.9720  139.0643  162.1478 C.2     1  UNL1        0.0112
     14 C         141.0349  140.0787  165.7022 C.3     1  UNL1        0.1673
     15 N         139.9388  139.5792  166.5961 N.3     1  UNL1       -0.2858
     16 C         142.2009  140.6324  164.9380 C.2     1  UNL1        0.2481
     17 O         142.7038  140.7417  163.5291 O.2     1  UNL1       -0.2726
     18 N         143.1387  141.2691  165.9204 N.am    1  UNL1       -0.2825
     19 C         142.5523  141.1090  167.2917 C.ar    1  UNL1        0.0484
     20 C         143.0343  141.5381  168.6457 C.ar    1  UNL1        0.0153
     21 C         142.2161  141.2315  169.8650 C.ar    1  UNL1        0.0126
     22 C         140.9159  140.4958  169.7301 C.ar    1  UNL1        0.0575
     23 CL        140.0977  140.1891  170.9494 Cl      1  UNL1       -0.0823
     24 C         140.4339  140.0667  168.3761 C.ar    1  UNL1        0.0104
     25 C         141.2521  140.3733  167.1569 C.ar    1  UNL1        0.0184
     26 H         139.5693  140.3911  167.0908 H       1  UNL1        0.1242
     27 H         143.9897  141.7141  165.7032 H       1  UNL1        0.1549
@<TRIPOS>BOND
     1     2     1    1
     2     2     3    1
     3     3     4    1
     4     4     5    2
     5     5     6    1
     6     6     7    2
     7     7     8    1
     8     8     9    1
     9     9    10    1
    10     9    11    2
    11    11    12    1
    12    12    13    2
    13     5    14    1
    14    14    15    1
    15    14    16    1
    16    16    17    2
    17    16    18   am
    18    18    19    1
    19    19    20   ar
    20    20    21   ar
    21    21    22   ar
    22    22    23    1
    23    22    24   ar
    24    24    25   ar
    25    15     2    1
    26    25    19   ar
    27    13     4    1
    28    25    14    1
    29    13     7    1
    30    15    26    1
    31    18    27    1
@<TRIPOS>MOLECULE
*****
 27 31 0 0 0
SMALL
GASTEIGER

@<TRIPOS>ATOM
      1 C         138.5364  144.7739  165.2823 C.3     1  UNL1        0.0175
      2 C         139.0923  143.4575  164.8262 C.3     1  UNL1        0.0592
      3 C         138.8711  142.9983  163.4154 C.3     1  UNL1        0.0434
      4 C         139.4269  141.6819  162.9593 C.2     1  UNL1       -0.0041
      5 C         140.2040  140.8246  163.9139 C.2     1  UNL1        0.0798
      6 N         140.6278  139.5848  163.1837 N.2     1  UNL1       -0.2519
      7 C         140.1127  139.6758  161.7779 C.2     1  UNL1        0.0636
      8 C         140.2236  138.7459  160.6061 C.3     1  UNL1        0.0836
      9 C         139.5923  139.1121  159.2957 C.2     1  UNL1        0.0414
     10 CL        139.7032  138.1822  158.1239 Cl      1  UNL1       -0.0865
     11 C         138.8501  140.4082  159.1570 C.2     1  UNL1        0.0075
     12 C         138.7392  141.3381  160.3287 C.2     1  UNL1        0.0015
     13 C         139.3705  140.9719  161.6391 C.2     1  UNL1        0.0112
     14 C         140.4252  141.2838  165.3246 C.3     1  UNL1        0.1673
     15 N         139.8694  142.6002  165.7808 N.3     1  UNL1       -0.2858
     16 C         141.0383  139.9506  165.0137 C.2     1  UNL1        0.2481
     17 O         141.1768  138.9877  163.8719 O.2     1  UNL1       -0.2726
     18 N         141.7176  139.4520  166.2547 N.am    1  UNL1       -0.2825
     19 C         141.5244  140.4771  167.3325 C.ar    1  UNL1        0.0484
     20 C         141.9727  140.5260  168.7631 C.ar    1  UNL1        0.0153
     21 C         141.6221  141.7070  169.6190 C.ar    1  UNL1        0.0126
     22 C         140.8234  142.8390  169.0442 C.ar    1  UNL1        0.0575
     23 CL        140.4729  144.0201  169.9000 Cl      1  UNL1       -0.0823
     24 C         140.3752  142.7902  167.6136 C.ar    1  UNL1        0.0104
     25 C         140.7257  141.6093  166.7577 C.ar    1  UNL1        0.0184
     26 H         140.6605  143.1588  166.1011 H       1  UNL1        0.1242
     27 H         142.2048  138.6013  166.3457 H       1  UNL1        0.1549
@<TRIPOS>BOND
     1     2     1    1
     2     2     3    1
     3     3     4    1
     4     4     5    2
     5     5     6    1
     6     6     7    2
     7     7     8    1
     8     8     9    1
     9     9    10    1
    10     9    11    2
    11    11    12    1
    12    12    13    2
    13     5    14    1
    14    14    15    1
    15    14    16    1
    16    16    17    2
    17    16    18   am
    18    18    19    1
    19    19    20   ar
    20    20    21   ar
    21    21    22   ar
    22    22    23    1
    23    22    24   ar
    24    24    25   ar
    25    15     2    1
    26    25    19   ar
    27    13     4    1
    28    25    14    1
    29    13     7    1
    30    15    26    1
    31    18    27    1
@<TRIPOS>MOLECULE
*****
 27 31 0 0 0
SMALL
GASTEIGER

@<TRIPOS>ATOM
      1 C         139.3474  144.1570  165.2947 C.3     1  UNL1        0.0175
      2 C         140.1854  142.9174  165.1875 C.3     1  UNL1        0.0592
      3 C         140.3590  142.2420  163.8594 C.3     1  UNL1        0.0434
      4 C         141.1969  141.0025  163.7522 C.2     1  UNL1       -0.0041
      5 C         141.8612  140.4384  164.9731 C.2     1  UNL1        0.0798
      6 N         142.6219  139.2126  164.5622 N.2     1  UNL1       -0.2519
      7 C         142.4278  139.0192  163.0874 C.2     1  UNL1        0.0636
      8 C         142.9391  137.9787  162.1357 C.3     1  UNL1        0.0836
      9 C         142.5699  138.0444  160.6834 C.2     1  UNL1        0.0414
     10 CL        143.0813  137.0039  159.7316 Cl      1  UNL1       -0.0865
     11 C         141.6892  139.1507  160.1828 C.2     1  UNL1        0.0075
     12 C         141.1778  140.1912  161.1345 C.2     1  UNL1        0.0015
     13 C         141.5471  140.1254  162.5868 C.2     1  UNL1        0.0112
     14 C         141.6875  141.1137  166.3011 C.3     1  UNL1        0.1673
     15 N         140.8496  142.3533  166.4084 N.3     1  UNL1       -0.2858
     16 C         142.5504  139.8877  166.3484 C.2     1  UNL1        0.2481
     17 O         143.0867  138.8242  165.4366 O.2     1  UNL1       -0.2726
     18 N         143.0017  139.6928  167.7655 N.am    1  UNL1       -0.2825
     19 C         142.4177  140.7983  168.5941 C.ar    1  UNL1        0.0484
     20 C         142.5206  141.1188  170.0559 C.ar    1  UNL1        0.0153
     21 C         141.8111  142.3175  170.6126 C.ar    1  UNL1        0.0126
     22 C         140.9990  143.1957  169.7076 C.ar    1  UNL1        0.0575
     23 CL        140.2896  144.3945  170.2643 Cl      1  UNL1       -0.0823
     24 C         140.8961  142.8752  168.2459 C.ar    1  UNL1        0.0104
     25 C         141.6055  141.6765  167.6891 C.ar    1  UNL1        0.0184
     26 H         141.4541  143.0861  166.7799 H       1  UNL1        0.1242
     27 H         143.5797  138.9667  168.0941 H       1  UNL1        0.1549
@<TRIPOS>BOND
     1     2     1    1
     2     2     3    1
     3     3     4    1
     4     4     5    2
     5     5     6    1
     6     6     7    2
     7     7     8    1
     8     8     9    1
     9     9    10    1
    10     9    11    2
    11    11    12    1
    12    12    13    2
    13     5    14    1
    14    14    15    1
    15    14    16    1
    16    16    17    2
    17    16    18   am
    18    18    19    1
    19    19    20   ar
    20    20    21   ar
    21    21    22   ar
    22    22    23    1
    23    22    24   ar
    24    24    25   ar
    25    15     2    1
    26    25    19   ar
    27    13     4    1
    28    25    14    1
    29    13     7    1
    30    15    26    1
    31    18    27    1
