@<TRIPOS>MOLECULE
*****
 22 24 0 0 0
SMALL
GASTEIGER

@<TRIPOS>ATOM
      1 C         140.5941  142.5556  165.4584 C.2     1  UNL1        0.2486
      2 O         140.0607  143.9496  165.6079 O.2     1  UNL1       -0.2699
      3 N         141.8791  142.3193  164.7215 N.am    1  UNL1       -0.2779
      4 C         140.0071  141.0556  167.4968 C.ar    1  UNL1       -0.0181
      5 C         139.2555  139.8980  168.0841 C.ar    1  UNL1       -0.0041
      6 C         138.3394  139.0827  167.2204 C.ar    1  UNL1       -0.0003
      7 C         138.1748  139.4251  165.7693 C.ar    1  UNL1        0.0001
      8 C         138.9264  140.5827  165.1820 C.ar    1  UNL1        0.0042
      9 C         139.8425  141.3980  166.0457 C.ar    1  UNL1        0.0496
     10 C         142.3427  141.4337  168.5701 C.3     1  UNL1        0.0047
     11 C         140.9232  141.8708  168.3606 C.3     1  UNL1        0.0225
     12 C         140.4199  143.1232  169.0148 C.3     1  UNL1        0.0047
     13 C         142.4125  140.9254  164.5720 C.3     1  UNL1        0.0926
     14 C         143.3494  140.2337  165.5175 C.3     1  UNL1        0.0383
     15 C         143.6186  138.8592  164.9806 C.3     1  UNL1        0.0704
     16 N         142.8482  138.7014  163.7033 N.3     1  UNL1       -0.2960
     17 C         142.1028  139.9783  163.4508 C.3     1  UNL1        0.0887
     18 H         142.1895  137.9274  163.7897 H       1  UNL1        0.1233
     19 C         142.6307  143.4770  164.1341 C.3     1  UNL1        0.0756
     20 C         142.3926  144.4312  163.0015 C.3     1  UNL1        0.0199
     21 C         143.6935  145.1142  163.3034 C.3     1  UNL1        0.0034
     22 C         143.9315  144.1599  164.4360 C.3     1  UNL1        0.0199
@<TRIPOS>BOND
     1    10    11    1
     2    11    12    1
     3    11     4    1
     4     4     5   ar
     5     5     6   ar
     6     6     7   ar
     7     7     8   ar
     8     8     9   ar
     9     9     1    1
    10     1     2    2
    11     1     3   am
    12     3    19    1
    13    19    20    1
    14    20    21    1
    15    21    22    1
    16    13     3    1
    17    13    14    1
    18    14    15    1
    19    15    16    1
    20    16    17    1
    21     9     4   ar
    22    22    19    1
    23    17    13    1
    24    16    18    1
@<TRIPOS>MOLECULE
*****
 22 24 0 0 0
SMALL
GASTEIGER

@<TRIPOS>ATOM
      1 C         142.2998  141.3465  167.5154 C.2     1  UNL1        0.2486
      2 O         143.3050  141.9557  168.4474 O.2     1  UNL1       -0.2699
      3 N         140.8335  141.4846  167.7996 N.am    1  UNL1       -0.2779
      4 C         143.2419  141.3518  165.0941 C.ar    1  UNL1       -0.0181
      5 C         143.7031  140.6045  163.8781 C.ar    1  UNL1       -0.0041
      6 C         143.6835  139.1047  163.8672 C.ar    1  UNL1       -0.0003
      7 C         143.2027  138.3521  165.0724 C.ar    1  UNL1        0.0001
      8 C         142.7415  139.0994  166.2884 C.ar    1  UNL1        0.0042
      9 C         142.7611  140.5992  166.2993 C.ar    1  UNL1        0.0496
     10 C         144.4962  143.5824  165.5423 C.3     1  UNL1        0.0047
     11 C         143.2615  142.8516  165.1050 C.3     1  UNL1        0.0225
     12 C         142.0463  143.6207  164.6786 C.3     1  UNL1        0.0047
     13 C         139.8284  140.8753  166.8676 C.3     1  UNL1        0.0926
     14 C         139.1475  139.5511  167.0485 C.3     1  UNL1        0.0383
     15 C         138.2259  139.3407  165.8839 C.3     1  UNL1        0.0704
     16 N         138.3372  140.5350  164.9831 N.3     1  UNL1       -0.2960
     17 C         139.3275  141.4834  165.5912 C.3     1  UNL1        0.0887
     18 H         137.4285  140.9906  164.8985 H       1  UNL1        0.1233
     19 C         140.3723  142.2318  169.0157 C.3     1  UNL1        0.0756
     20 C         140.4244  143.6621  169.4649 C.3     1  UNL1        0.0199
     21 C         139.7200  143.2887  170.7355 C.3     1  UNL1        0.0034
     22 C         139.6680  141.8585  170.2862 C.3     1  UNL1        0.0199
@<TRIPOS>BOND
     1    10    11    1
     2    11    12    1
     3    11     4    1
     4     4     5   ar
     5     5     6   ar
     6     6     7   ar
     7     7     8   ar
     8     8     9   ar
     9     9     1    1
    10     1     2    2
    11     1     3   am
    12     3    19    1
    13    19    20    1
    14    20    21    1
    15    21    22    1
    16    13     3    1
    17    13    14    1
    18    14    15    1
    19    15    16    1
    20    16    17    1
    21     9     4   ar
    22    22    19    1
    23    17    13    1
    24    16    18    1
@<TRIPOS>MOLECULE
*****
 22 24 0 0 0
SMALL
GASTEIGER

@<TRIPOS>ATOM
      1 C         142.3594  140.9892  167.3635 C.2     1  UNL1        0.2486
      2 O         142.9436  140.4162  168.6206 O.2     1  UNL1       -0.2699
      3 N         140.8832  141.2377  167.2679 N.am    1  UNL1       -0.2779
      4 C         143.6966  140.2251  165.2711 C.ar    1  UNL1       -0.0181
      5 C         144.5885  140.5496  164.1097 C.ar    1  UNL1       -0.0041
      6 C         145.0353  141.9629  163.8791 C.ar    1  UNL1       -0.0003
      7 C         144.5901  143.0515  164.8100 C.ar    1  UNL1        0.0001
      8 C         143.6982  142.7270  165.9714 C.ar    1  UNL1        0.0042
      9 C         143.2514  141.3137  166.2020 C.ar    1  UNL1        0.0496
     10 C         142.0842  138.2594  164.7361 C.3     1  UNL1        0.0047
     11 C         143.2498  138.8118  165.5017 C.3     1  UNL1        0.0225
     12 C         143.9686  137.9511  166.4979 C.3     1  UNL1        0.0047
     13 C         140.2990  141.8107  166.0108 C.3     1  UNL1        0.0926
     14 C         139.8303  141.0283  164.8199 C.3     1  UNL1        0.0383
     15 C         139.3225  142.0007  163.7969 C.3     1  UNL1        0.0704
     16 N         139.4774  143.3842  164.3555 N.3     1  UNL1       -0.2960
     17 C         140.0809  143.2667  165.7237 C.3     1  UNL1        0.0887
     18 H         138.5654  143.8367  164.4172 H       1  UNL1        0.1233
     19 C         139.9912  140.9131  168.4294 C.3     1  UNL1        0.0756
     20 C         139.7499  141.5151  169.7820 C.3     1  UNL1        0.0199
     21 C         138.7298  140.4543  170.0721 C.3     1  UNL1        0.0034
     22 C         138.9712  139.8524  168.7194 C.3     1  UNL1        0.0199
@<TRIPOS>BOND
     1    10    11    1
     2    11    12    1
     3    11     4    1
     4     4     5   ar
     5     5     6   ar
     6     6     7   ar
     7     7     8   ar
     8     8     9   ar
     9     9     1    1
    10     1     2    2
    11     1     3   am
    12     3    19    1
    13    19    20    1
    14    20    21    1
    15    21    22    1
    16    13     3    1
    17    13    14    1
    18    14    15    1
    19    15    16    1
    20    16    17    1
    21     9     4   ar
    22    22    19    1
    23    17    13    1
    24    16    18    1
@<TRIPOS>MOLECULE
*****
 22 24 0 0 0
SMALL
GASTEIGER

@<TRIPOS>ATOM
      1 C         140.7645  141.5676  164.1464 C.2     1  UNL1        0.2486
      2 O         140.0713  141.0497  162.9211 O.2     1  UNL1       -0.2699
      3 N         140.5575  140.8896  165.4683 N.am    1  UNL1       -0.2779
      4 C         141.0763  144.1421  163.9874 C.ar    1  UNL1       -0.0181
      5 C         141.9765  145.3380  163.8908 C.ar    1  UNL1       -0.0041
      6 C         143.4650  145.1556  163.8565 C.ar    1  UNL1       -0.0003
      7 C         144.0533  143.7772  163.9189 C.ar    1  UNL1        0.0001
      8 C         143.1531  142.5813  164.0155 C.ar    1  UNL1        0.0042
      9 C         141.6646  142.7637  164.0498 C.ar    1  UNL1        0.0496
     10 C         138.8876  144.5317  165.3319 C.3     1  UNL1        0.0047
     11 C         139.5879  144.3245  164.0217 C.3     1  UNL1        0.0225
     12 C         138.7996  144.2997  162.7458 C.3     1  UNL1        0.0047
     13 C         141.2507  141.4075  166.6935 C.3     1  UNL1        0.0926
     14 C         140.7210  142.4515  167.6313 C.3     1  UNL1        0.0383
     15 C         141.7382  142.6615  168.7135 C.3     1  UNL1        0.0704
     16 N         142.8966  141.7474  168.4446 N.3     1  UNL1       -0.2960
     17 C         142.5953  140.9723  167.1961 C.3     1  UNL1        0.0887
     18 H         143.0211  141.1065  169.2283 H       1  UNL1        0.1233
     19 C         139.6573  139.6935  165.5649 C.3     1  UNL1        0.0756
     20 C         138.2876  139.4392  166.1208 C.3     1  UNL1        0.0199
     21 C         138.3843  138.0022  165.7016 C.3     1  UNL1        0.0034
     22 C         139.7541  138.2567  165.1457 C.3     1  UNL1        0.0199
@<TRIPOS>BOND
     1    10    11    1
     2    11    12    1
     3    11     4    1
     4     4     5   ar
     5     5     6   ar
     6     6     7   ar
     7     7     8   ar
     8     8     9   ar
     9     9     1    1
    10     1     2    2
    11     1     3   am
    12     3    19    1
    13    19    20    1
    14    20    21    1
    15    21    22    1
    16    13     3    1
    17    13    14    1
    18    14    15    1
    19    15    16    1
    20    16    17    1
    21     9     4   ar
    22    22    19    1
    23    17    13    1
    24    16    18    1
@<TRIPOS>MOLECULE
*****
 22 24 0 0 0
SMALL
GASTEIGER

@<TRIPOS>ATOM
      1 C         141.6304  141.3872  165.0806 C.2     1  UNL1        0.2486
      2 O         143.0438  140.8992  165.1993 O.2     1  UNL1       -0.2699
      3 N         141.3417  142.6893  164.3943 N.am    1  UNL1       -0.2779
      4 C         140.2237  140.6074  167.1210 C.ar    1  UNL1       -0.0181
      5 C         139.0991  139.7932  167.6886 C.ar    1  UNL1       -0.0041
      6 C         138.2563  138.9446  166.7833 C.ar    1  UNL1       -0.0003
      7 C         138.5382  138.9101  165.3104 C.ar    1  UNL1        0.0001
      8 C         139.6629  139.7243  164.7429 C.ar    1  UNL1        0.0042
      9 C         140.5057  140.5729  165.6482 C.ar    1  UNL1        0.0496
     10 C         142.3472  140.9122  168.5866 C.3     1  UNL1        0.0047
     11 C         141.0665  141.4560  168.0263 C.3     1  UNL1        0.0225
     12 C         140.6285  142.8485  168.3714 C.3     1  UNL1        0.0047
     13 C         139.9282  143.1773  164.2756 C.3     1  UNL1        0.0926
     14 C         139.1893  143.9949  165.2932 C.3     1  UNL1        0.0383
     15 C         137.8100  144.2563  164.7649 C.3     1  UNL1        0.0704
     16 N         137.6964  143.6002  163.4208 N.3     1  UNL1       -0.2960
     17 C         139.0055  142.9334  163.1184 C.3     1  UNL1        0.0887
     18 H         137.4929  144.3021  162.7092 H       1  UNL1        0.1233
     19 C         142.4664  143.5035  163.8267 C.3     1  UNL1        0.0756
     20 C         143.6814  144.1752  164.3948 C.3     1  UNL1        0.0199
     21 C         144.0570  144.6550  163.0241 C.3     1  UNL1        0.0034
     22 C         142.8420  143.9832  162.4561 C.3     1  UNL1        0.0199
@<TRIPOS>BOND
     1    10    11    1
     2    11    12    1
     3    11     4    1
     4     4     5   ar
     5     5     6   ar
     6     6     7   ar
     7     7     8   ar
     8     8     9   ar
     9     9     1    1
    10     1     2    2
    11     1     3   am
    12     3    19    1
    13    19    20    1
    14    20    21    1
    15    21    22    1
    16    13     3    1
    17    13    14    1
    18    14    15    1
    19    15    16    1
    20    16    17    1
    21     9     4   ar
    22    22    19    1
    23    17    13    1
    24    16    18    1
@<TRIPOS>MOLECULE
*****
 22 24 0 0 0
SMALL
GASTEIGER

@<TRIPOS>ATOM
      1 C         141.1287  141.4209  164.0900 C.2     1  UNL1        0.2486
      2 O         141.3162  141.6300  162.6166 O.2     1  UNL1       -0.2699
      3 N         141.7622  142.3653  165.0682 N.am    1  UNL1       -0.2779
      4 C         140.8877  138.8842  164.5969 C.ar    1  UNL1       -0.0181
      5 C         140.0666  137.7307  165.0921 C.ar    1  UNL1       -0.0041
      6 C         138.6654  137.9605  165.5758 C.ar    1  UNL1       -0.0003
      7 C         138.0853  139.3437  165.5643 C.ar    1  UNL1        0.0001
      8 C         138.9064  140.4971  165.0690 C.ar    1  UNL1        0.0042
      9 C         140.3076  140.2674  164.5853 C.ar    1  UNL1        0.0496
     10 C         143.4424  138.7967  165.0614 C.3     1  UNL1        0.0047
     11 C         142.2888  138.6544  164.1132 C.3     1  UNL1        0.0225
     12 C         142.5364  138.2824  162.6814 C.3     1  UNL1        0.0047
     13 C         141.5746  142.1561  166.5417 C.3     1  UNL1        0.0926
     14 C         140.4932  142.7605  167.3874 C.3     1  UNL1        0.0383
     15 C         140.6858  142.2838  168.7965 C.3     1  UNL1        0.0704
     16 N         141.8862  141.3848  168.8217 N.3     1  UNL1       -0.2960
     17 C         142.4355  141.3058  167.4281 C.3     1  UNL1        0.0887
     18 H         141.6153  140.4544  169.1402 H       1  UNL1        0.1233
     19 C         142.5833  143.5188  164.5729 C.3     1  UNL1        0.0756
     20 C         142.2806  144.8233  163.8973 C.3     1  UNL1        0.0199
     21 C         143.7443  145.1501  163.8725 C.3     1  UNL1        0.0034
     22 C         144.0469  143.8455  164.5482 C.3     1  UNL1        0.0199
@<TRIPOS>BOND
     1    10    11    1
     2    11    12    1
     3    11     4    1
     4     4     5   ar
     5     5     6   ar
     6     6     7   ar
     7     7     8   ar
     8     8     9   ar
     9     9     1    1
    10     1     2    2
    11     1     3   am
    12     3    19    1
    13    19    20    1
    14    20    21    1
    15    21    22    1
    16    13     3    1
    17    13    14    1
    18    14    15    1
    19    15    16    1
    20    16    17    1
    21     9     4   ar
    22    22    19    1
    23    17    13    1
    24    16    18    1
@<TRIPOS>MOLECULE
*****
 22 24 0 0 0
SMALL
GASTEIGER

@<TRIPOS>ATOM
      1 C         141.4963  140.3003  164.0856 C.2     1  UNL1        0.2486
      2 O         141.3456  140.9531  162.7435 O.2     1  UNL1       -0.2699
      3 N         142.8221  140.3246  164.7867 N.am    1  UNL1       -0.2779
      4 C         139.2519  140.4422  165.3865 C.ar    1  UNL1       -0.0181
      5 C         138.0769  139.7650  166.0274 C.ar    1  UNL1       -0.0041
      6 C         137.9712  138.2689  166.0082 C.ar    1  UNL1       -0.0003
      7 C         139.0405  137.4499  165.3482 C.ar    1  UNL1        0.0001
      8 C         140.2155  138.1270  164.7073 C.ar    1  UNL1        0.0042
      9 C         140.3212  139.6231  164.7265 C.ar    1  UNL1        0.0496
     10 C         140.2026  142.6173  166.4424 C.3     1  UNL1        0.0047
     11 C         139.3576  141.9383  165.4057 C.3     1  UNL1        0.0225
     12 C         138.6182  142.7555  164.3881 C.3     1  UNL1        0.0047
     13 C         142.9729  139.6718  166.1288 C.3     1  UNL1        0.0926
     14 C         142.4768  140.2169  167.4352 C.3     1  UNL1        0.0383
     15 C         142.8435  139.2413  168.5139 C.3     1  UNL1        0.0704
     16 N         143.5663  138.0931  167.8742 N.3     1  UNL1       -0.2960
     17 C         143.6462  138.3591  166.4001 C.3     1  UNL1        0.0887
     18 H         143.0560  137.2260  168.0422 H       1  UNL1        0.1233
     19 C         143.9972  141.0017  164.1458 C.3     1  UNL1        0.0756
     20 C         144.5244  142.4056  164.1132 C.3     1  UNL1        0.0199
     21 C         145.6590  141.9593  163.2395 C.3     1  UNL1        0.0034
     22 C         145.1318  140.5554  163.2721 C.3     1  UNL1        0.0199
@<TRIPOS>BOND
     1    10    11    1
     2    11    12    1
     3    11     4    1
     4     4     5   ar
     5     5     6   ar
     6     6     7   ar
     7     7     8   ar
     8     8     9   ar
     9     9     1    1
    10     1     2    2
    11     1     3   am
    12     3    19    1
    13    19    20    1
    14    20    21    1
    15    21    22    1
    16    13     3    1
    17    13    14    1
    18    14    15    1
    19    15    16    1
    20    16    17    1
    21     9     4   ar
    22    22    19    1
    23    17    13    1
    24    16    18    1
@<TRIPOS>MOLECULE
*****
 22 24 0 0 0
SMALL
GASTEIGER

@<TRIPOS>ATOM
      1 C         141.0316  139.7623  166.2785 C.2     1  UNL1        0.2486
      2 O         139.9919  139.8335  167.3574 O.2     1  UNL1       -0.2699
      3 N         142.4027  140.3206  166.5202 N.am    1  UNL1       -0.2779
      4 C         139.9745  139.9246  163.9108 C.ar    1  UNL1       -0.0181
      5 C         139.6430  139.2951  162.5902 C.ar    1  UNL1       -0.0041
      6 C         140.0372  137.8739  162.3168 C.ar    1  UNL1       -0.0003
      7 C         140.7629  137.0822  163.3640 C.ar    1  UNL1        0.0001
      8 C         141.0943  137.7116  164.6845 C.ar    1  UNL1        0.0042
      9 C         140.7001  139.1328  164.9579 C.ar    1  UNL1        0.0496
     10 C         140.5157  142.4644  163.8328 C.3     1  UNL1        0.0047
     11 C         139.5802  141.3458  164.1842 C.3     1  UNL1        0.0225
     12 C         138.2506  141.6484  164.8090 C.3     1  UNL1        0.0047
     13 C         143.4423  140.2494  165.4413 C.3     1  UNL1        0.0926
     14 C         143.8084  141.3545  164.4953 C.3     1  UNL1        0.0383
     15 C         144.8908  140.8487  163.5883 C.3     1  UNL1        0.0704
     16 N         145.1937  139.4311  163.9736 N.3     1  UNL1       -0.2960
     17 C         144.2985  139.0607  165.1188 C.3     1  UNL1        0.0887
     18 H         146.1701  139.3506  164.2574 H       1  UNL1        0.1233
     19 C         142.7342  140.9501  167.8408 C.3     1  UNL1        0.0756
     20 C         142.8134  140.4636  169.2575 C.3     1  UNL1        0.0199
     21 C         143.2029  141.8402  169.7084 C.3     1  UNL1        0.0034
     22 C         143.1237  142.3265  168.2916 C.3     1  UNL1        0.0199
@<TRIPOS>BOND
     1    10    11    1
     2    11    12    1
     3    11     4    1
     4     4     5   ar
     5     5     6   ar
     6     6     7   ar
     7     7     8   ar
     8     8     9   ar
     9     9     1    1
    10     1     2    2
    11     1     3   am
    12     3    19    1
    13    19    20    1
    14    20    21    1
    15    21    22    1
    16    13     3    1
    17    13    14    1
    18    14    15    1
    19    15    16    1
    20    16    17    1
    21     9     4   ar
    22    22    19    1
    23    17    13    1
    24    16    18    1
@<TRIPOS>MOLECULE
*****
 22 24 0 0 0
SMALL
GASTEIGER

@<TRIPOS>ATOM
      1 C         143.5384  139.8763  164.6491 C.2     1  UNL1        0.2486
      2 O         144.9512  140.0960  164.1955 O.2     1  UNL1       -0.2699
      3 N         142.5198  139.3311  163.6924 N.am    1  UNL1       -0.2779
      4 C         142.9337  141.6292  166.4689 C.ar    1  UNL1       -0.0181
      5 C         142.5396  141.9545  167.8791 C.ar    1  UNL1       -0.0041
      6 C         142.3559  140.8523  168.8798 C.ar    1  UNL1       -0.0003
      7 C         142.5664  139.4248  168.4702 C.ar    1  UNL1        0.0001
      8 C         142.9606  139.0995  167.0600 C.ar    1  UNL1        0.0042
      9 C         143.1442  140.2017  166.0593 C.ar    1  UNL1        0.0496
     10 C         141.9680  143.1599  164.6050 C.3     1  UNL1        0.0047
     11 C         143.1174  142.7314  165.4682 C.3     1  UNL1        0.0225
     12 C         144.4505  143.4051  165.3306 C.3     1  UNL1        0.0047
     13 C         141.1070  139.1114  164.1459 C.3     1  UNL1        0.0926
     14 C         140.5381  137.8249  164.6667 C.3     1  UNL1        0.0383
     15 C         139.0945  138.0579  165.0010 C.3     1  UNL1        0.0704
     16 N         138.7712  139.4886  164.6868 N.3     1  UNL1       -0.2960
     17 C         140.0149  140.1396  164.1583 C.3     1  UNL1        0.0887
     18 H         138.4624  139.9675  165.5328 H       1  UNL1        0.1233
     19 C         142.9140  139.0057  162.2821 C.3     1  UNL1        0.0756
     20 C         142.5978  139.5803  160.9331 C.3     1  UNL1        0.0199
     21 C         143.4713  138.5456  160.2877 C.3     1  UNL1        0.0034
     22 C         143.7874  137.9711  161.6368 C.3     1  UNL1        0.0199
@<TRIPOS>BOND
     1    10    11    1
     2    11    12    1
     3    11     4    1
     4     4     5   ar
     5     5     6   ar
     6     6     7   ar
     7     7     8   ar
     8     8     9   ar
     9     9     1    1
    10     1     2    2
    11     1     3   am
    12     3    19    1
    13    19    20    1
    14    20    21    1
    15    21    22    1
    16    13     3    1
    17    13    14    1
    18    14    15    1
    19    15    16    1
    20    16    17    1
    21     9     4   ar
    22    22    19    1
    23    17    13    1
    24    16    18    1
