@<TRIPOS>MOLECULE
*****
 36 40 0 0 0
SMALL
GASTEIGER

@<TRIPOS>ATOM
      1 C         137.5098  140.6489  162.9493 C.3     1  UNL1        0.0768
      2 N         137.8760  142.0818  163.1997 N.3     1  UNL1       -0.2724
      3 C         137.6610  142.8363  164.4782 C.3     1  UNL1        0.0721
      4 C         138.1736  144.2326  164.2842 C.3     1  UNL1        0.0187
      5 C         138.7053  144.3411  162.8858 C.3     1  UNL1        0.0178
      6 C         138.5213  143.0118  162.2156 C.3     1  UNL1        0.0721
      7 C         139.3140  145.5641  162.2665 C.3     1  UNL1        0.0077
      8 C         140.7074  145.5104  161.7136 C.3     1  UNL1        0.0459
      9 C         141.7585  144.6952  162.4070 C.ar    1  UNL1        0.0603
     10 C         142.4579  145.2444  163.6150 C.ar    1  UNL1        0.0145
     11 C         143.5090  144.4294  164.3083 C.ar    1  UNL1       -0.0003
     12 C         143.8607  143.0649  163.7937 C.ar    1  UNL1        0.0092
     13 C         143.1613  142.5157  162.5858 C.ar    1  UNL1        0.1240
     14 N         142.1102  143.3309  161.8924 N.ar    1  UNL1       -0.2356
     15 N         143.5130  141.1514  162.0712 N.pl3   1  UNL1       -0.3184
     16 C         144.5641  140.3363  162.7646 C.3     1  UNL1        0.0885
     17 C         145.2635  140.8855  163.9725 C.3     1  UNL1        0.0260
     18 C         144.9118  142.2499  164.4871 C.3     1  UNL1        0.0309
     19 H         143.0540  140.7909  161.2784 H       1  UNL1        0.1482
     20 C         138.4212  139.5503  163.4101 C.3     1  UNL1        0.0439
     21 C         139.3070  139.7612  164.6022 C.ar    1  UNL1       -0.0178
     22 C         140.7580  140.0892  164.4098 C.ar    1  UNL1       -0.0040
     23 C         141.6437  140.3001  165.6019 C.ar    1  UNL1        0.0028
     24 C         141.0784  140.1831  166.9864 C.ar    1  UNL1        0.0369
     25 C         139.6274  139.8551  167.1788 C.ar    1  UNL1        0.1382
     26 C         138.7417  139.6442  165.9867 C.ar    1  UNL1        0.0327
     27 O         139.0621  139.7380  168.5633 O.3     1  UNL1       -0.4765
     28 C         139.6874  140.4978  169.6953 C.3     1  UNL1        0.1978
     29 C         139.8193  141.9890  169.7898 C.3     1  UNL1        0.0782
     30 C         140.5040  142.3128  171.0845 C.3     1  UNL1        0.1461
     31 O         140.7953  141.0216  171.7903 O.3     1  UNL1       -0.3498
     32 C         140.2906  139.8999  170.9317 C.3     1  UNL1        0.1855
     33 C         138.4469  138.2408  162.6790 C.3     1  UNL1        0.0474
     34 O         140.8310  137.3593  162.1411 O.co2   1  UNL1       -0.5492
     35 C         139.5337  137.9583  161.6845 C.2     1  UNL1        0.0507
     36 O         139.3233  138.2747  160.2334 O.co2   1  UNL1       -0.5492
@<TRIPOS>UNITY_ATOM_ATTR
34 1
charge -1
@<TRIPOS>BOND
     1    34    35   ar
     2    35    36   ar
     3    35    33    1
     4    20    33    1
     5    20     1    1
     6     1     2    1
     7     2     3    1
     8     3     4    1
     9     4     5    1
    10     5     7    1
    11     7     8    1
    12     8     9    1
    13     9    10   ar
    14    10    11   ar
    15    11    12   ar
    16    12    13   ar
    17    13    14   ar
    18    13    15    1
    19    15    16    1
    20    16    17    1
    21    17    18    1
    22     5     6    1
    23    20    21    1
    24    21    22   ar
    25    22    23   ar
    26    23    24   ar
    27    24    25   ar
    28    25    27    1
    29    28    27    1
    30    28    29    1
    31    29    30    1
    32    30    31    1
    33    31    32    1
    34    25    26   ar
    35     6     2    1
    36    26    21   ar
    37    14     9   ar
    38    32    28    1
    39    18    12    1
    40    15    19    1
@<TRIPOS>MOLECULE
*****
 36 40 0 0 0
SMALL
GASTEIGER

@<TRIPOS>ATOM
      1 C         142.8139  141.2573  166.2135 C.3     1  UNL1        0.0768
      2 N         142.0015  142.3462  165.5776 N.3     1  UNL1       -0.2724
      3 C         142.3881  143.1416  164.3659 C.3     1  UNL1        0.0721
      4 C         141.2854  144.1178  164.0812 C.3     1  UNL1        0.0187
      5 C         140.2174  143.9258  165.1168 C.3     1  UNL1        0.0178
      6 C         140.6600  142.8309  166.0416 C.3     1  UNL1        0.0721
      7 C         138.9325  144.6939  165.2110 C.3     1  UNL1        0.0077
      8 C         137.6838  144.1461  164.5862 C.3     1  UNL1        0.0459
      9 C         137.7787  143.1271  163.4895 C.ar    1  UNL1        0.0603
     10 C         137.5679  141.6739  163.7958 C.ar    1  UNL1        0.0145
     11 C         137.6628  140.6548  162.6992 C.ar    1  UNL1       -0.0003
     12 C         137.9684  141.0890  161.2963 C.ar    1  UNL1        0.0092
     13 C         138.1791  142.5422  160.9900 C.ar    1  UNL1        0.1240
     14 N         138.0842  143.5612  162.0866 N.ar    1  UNL1       -0.2356
     15 N         138.4847  142.9763  159.5871 N.pl3   1  UNL1       -0.3184
     16 C         138.5796  141.9573  158.4905 C.3     1  UNL1        0.0885
     17 C         138.3689  140.5041  158.7968 C.3     1  UNL1        0.0260
     18 C         138.0633  140.0699  160.1997 C.3     1  UNL1        0.0309
     19 H         138.6230  143.9301  159.3861 H       1  UNL1        0.1482
     20 C         142.1397  140.0164  166.7190 C.3     1  UNL1        0.0439
     21 C         141.2155  139.2467  165.8226 C.ar    1  UNL1       -0.0178
     22 C         139.7536  139.1619  166.1476 C.ar    1  UNL1       -0.0040
     23 C         138.8294  138.3922  165.2512 C.ar    1  UNL1        0.0028
     24 C         139.3672  137.7074  164.0297 C.ar    1  UNL1        0.0369
     25 C         140.8291  137.7923  163.7047 C.ar    1  UNL1        0.1382
     26 C         141.7532  138.5619  164.6011 C.ar    1  UNL1        0.0327
     27 O         141.3668  137.1075  162.4833 O.3     1  UNL1       -0.4765
     28 C         142.2118  137.8703  161.5066 C.3     1  UNL1        0.1978
     29 C         141.7059  138.7537  160.4049 C.3     1  UNL1        0.0782
     30 C         142.8925  139.3132  159.6774 C.3     1  UNL1        0.1461
     31 O         144.1317  138.7756  160.3297 O.3     1  UNL1       -0.3498
     32 C         143.7110  137.8839  161.4601 C.3     1  UNL1        0.1855
     33 C         142.3897  139.5451  168.1209 C.3     1  UNL1        0.0474
     34 O         142.1871  141.5196  169.7974 O.co2   1  UNL1       -0.5492
     35 C         141.6890  140.2063  169.2707 C.2     1  UNL1        0.0507
     36 O         140.4904  139.5544  169.8937 O.co2   1  UNL1       -0.5492
@<TRIPOS>UNITY_ATOM_ATTR
34 1
charge -1
@<TRIPOS>BOND
     1    34    35   ar
     2    35    36   ar
     3    35    33    1
     4    20    33    1
     5    20     1    1
     6     1     2    1
     7     2     3    1
     8     3     4    1
     9     4     5    1
    10     5     7    1
    11     7     8    1
    12     8     9    1
    13     9    10   ar
    14    10    11   ar
    15    11    12   ar
    16    12    13   ar
    17    13    14   ar
    18    13    15    1
    19    15    16    1
    20    16    17    1
    21    17    18    1
    22     5     6    1
    23    20    21    1
    24    21    22   ar
    25    22    23   ar
    26    23    24   ar
    27    24    25   ar
    28    25    27    1
    29    28    27    1
    30    28    29    1
    31    29    30    1
    32    30    31    1
    33    31    32    1
    34    25    26   ar
    35     6     2    1
    36    26    21   ar
    37    14     9   ar
    38    32    28    1
    39    18    12    1
    40    15    19    1
@<TRIPOS>MOLECULE
*****
 36 40 0 0 0
SMALL
GASTEIGER

@<TRIPOS>ATOM
      1 C         141.8954  141.0846  168.5319 C.3     1  UNL1        0.0768
      2 N         142.6311  140.3345  167.4614 N.3     1  UNL1       -0.2724
      3 C         142.9724  138.8740  167.4838 C.3     1  UNL1        0.0721
      4 C         143.7069  138.5500  166.2167 C.3     1  UNL1        0.0187
      5 C         143.8196  139.8103  165.4112 C.3     1  UNL1        0.0178
      6 C         143.1547  140.9132  166.1804 C.3     1  UNL1        0.0721
      7 C         144.4810  139.9442  164.0716 C.3     1  UNL1        0.0077
      8 C         144.0427  139.0772  162.9288 C.3     1  UNL1        0.0459
      9 C         142.5815  138.8965  162.6418 C.ar    1  UNL1        0.0603
     10 C         141.8862  137.6339  163.0569 C.ar    1  UNL1        0.0145
     11 C         140.4251  137.4532  162.7699 C.ar    1  UNL1       -0.0003
     12 C         139.6592  138.5352  162.0678 C.ar    1  UNL1        0.0092
     13 C         140.3545  139.7978  161.6527 C.ar    1  UNL1        0.1240
     14 N         141.8157  139.9785  161.9397 N.ar    1  UNL1       -0.2356
     15 N         139.5887  140.8797  160.9507 N.pl3   1  UNL1       -0.3184
     16 C         138.1275  140.6990  160.6637 C.3     1  UNL1        0.0885
     17 C         137.4322  139.4364  161.0788 C.3     1  UNL1        0.0260
     18 C         138.1980  138.3545  161.7809 C.3     1  UNL1        0.0309
     19 H         140.0450  141.7084  160.6782 H       1  UNL1        0.1482
     20 C         140.3959  141.1260  168.5234 C.3     1  UNL1        0.0439
     21 C         139.6445  140.8233  167.2608 C.ar    1  UNL1       -0.0178
     22 C         138.8554  139.5530  167.1438 C.ar    1  UNL1       -0.0040
     23 C         138.1040  139.2505  165.8814 C.ar    1  UNL1        0.0028
     24 C         138.1417  140.2182  164.7359 C.ar    1  UNL1        0.0369
     25 C         138.9308  141.4885  164.8529 C.ar    1  UNL1        0.1382
     26 C         139.6822  141.7910  166.1153 C.ar    1  UNL1        0.0327
     27 O         138.9685  142.4562  163.7074 O.3     1  UNL1       -0.4765
     28 C         140.1085  143.4225  163.5792 C.3     1  UNL1        0.1978
     29 C         141.5482  143.0634  163.3598 C.3     1  UNL1        0.0782
     30 C         142.3386  144.3366  163.2929 C.3     1  UNL1        0.1461
     31 O         141.3872  145.4826  163.4711 O.3     1  UNL1       -0.3498
     32 C         140.0090  144.9177  163.6480 C.3     1  UNL1        0.1855
     33 C         139.6480  141.4700  169.7772 C.3     1  UNL1        0.0474
     34 O         140.0834  143.9890  170.2412 O.co2   1  UNL1       -0.5492
     35 C         140.1551  142.5560  170.6790 C.2     1  UNL1        0.0507
     36 O         140.7340  142.2092  172.0186 O.co2   1  UNL1       -0.5492
@<TRIPOS>UNITY_ATOM_ATTR
34 1
charge -1
@<TRIPOS>BOND
     1    34    35   ar
     2    35    36   ar
     3    35    33    1
     4    20    33    1
     5    20     1    1
     6     1     2    1
     7     2     3    1
     8     3     4    1
     9     4     5    1
    10     5     7    1
    11     7     8    1
    12     8     9    1
    13     9    10   ar
    14    10    11   ar
    15    11    12   ar
    16    12    13   ar
    17    13    14   ar
    18    13    15    1
    19    15    16    1
    20    16    17    1
    21    17    18    1
    22     5     6    1
    23    20    21    1
    24    21    22   ar
    25    22    23   ar
    26    23    24   ar
    27    24    25   ar
    28    25    27    1
    29    28    27    1
    30    28    29    1
    31    29    30    1
    32    30    31    1
    33    31    32    1
    34    25    26   ar
    35     6     2    1
    36    26    21   ar
    37    14     9   ar
    38    32    28    1
    39    18    12    1
    40    15    19    1
@<TRIPOS>MOLECULE
*****
 36 40 0 0 0
SMALL
GASTEIGER

@<TRIPOS>ATOM
      1 C         141.2202  137.2166  163.6115 C.3     1  UNL1        0.0768
      2 N         142.3842  138.1017  163.2773 N.3     1  UNL1       -0.2724
      3 C         142.8708  138.4352  161.8981 C.3     1  UNL1        0.0721
      4 C         144.0533  139.3482  162.0320 C.3     1  UNL1        0.0187
      5 C         144.2976  139.5791  163.4938 C.3     1  UNL1        0.0178
      6 C         143.2660  138.8087  164.2634 C.3     1  UNL1        0.0721
      7 C         145.3828  140.4308  164.0826 C.3     1  UNL1        0.0077
      8 C         145.3596  141.9175  163.8855 C.3     1  UNL1        0.0459
      9 C         144.0494  142.6451  163.8208 C.ar    1  UNL1        0.0603
     10 C         143.1233  142.6286  165.0007 C.ar    1  UNL1        0.0145
     11 C         141.8132  143.3561  164.9361 C.ar    1  UNL1       -0.0003
     12 C         141.4291  144.1003  163.6915 C.ar    1  UNL1        0.0092
     13 C         142.3551  144.1168  162.5117 C.ar    1  UNL1        0.1240
     14 N         143.6653  143.3892  162.5763 N.ar    1  UNL1       -0.2356
     15 N         141.9711  144.8609  161.2672 N.pl3   1  UNL1       -0.3184
     16 C         140.6610  145.5885  161.2026 C.3     1  UNL1        0.0885
     17 C         139.7349  145.5719  162.3825 C.3     1  UNL1        0.0260
     18 C         140.1189  144.8278  163.6269 C.3     1  UNL1        0.0309
     19 H         142.5789  144.8718  160.4928 H       1  UNL1        0.1482
     20 C         139.8441  137.8012  163.7330 C.3     1  UNL1        0.0439
     21 C         139.3919  138.3904  165.0364 C.ar    1  UNL1       -0.0178
     22 C         138.2504  137.7684  165.7847 C.ar    1  UNL1       -0.0040
     23 C         137.7983  138.3576  167.0880 C.ar    1  UNL1        0.0028
     24 C         138.4877  139.5687  167.6429 C.ar    1  UNL1        0.0369
     25 C         139.6293  140.1906  166.8945 C.ar    1  UNL1        0.1382
     26 C         140.0814  139.6015  165.5913 C.ar    1  UNL1        0.0327
     27 O         140.3187  141.4018  167.4494 O.3     1  UNL1       -0.4765
     28 C         141.5028  141.2411  168.3561 C.3     1  UNL1        0.1978
     29 C         142.3751  142.3472  168.8714 C.3     1  UNL1        0.0782
     30 C         143.4339  141.7360  169.7405 C.3     1  UNL1        0.1461
     31 O         143.2160  140.2520  169.7623 O.3     1  UNL1       -0.3498
     32 C         142.0225  139.9462  168.9067 C.3     1  UNL1        0.1855
     33 C         138.9202  137.7966  162.5514 C.3     1  UNL1        0.0474
     34 O         138.9211  140.2142  161.5997 O.co2   1  UNL1       -0.5492
     35 C         139.1546  138.7443  161.4125 C.2     1  UNL1        0.0507
     36 O         139.6224  138.2221  160.0864 O.co2   1  UNL1       -0.5492
@<TRIPOS>UNITY_ATOM_ATTR
34 1
charge -1
@<TRIPOS>BOND
     1    34    35   ar
     2    35    36   ar
     3    35    33    1
     4    20    33    1
     5    20     1    1
     6     1     2    1
     7     2     3    1
     8     3     4    1
     9     4     5    1
    10     5     7    1
    11     7     8    1
    12     8     9    1
    13     9    10   ar
    14    10    11   ar
    15    11    12   ar
    16    12    13   ar
    17    13    14   ar
    18    13    15    1
    19    15    16    1
    20    16    17    1
    21    17    18    1
    22     5     6    1
    23    20    21    1
    24    21    22   ar
    25    22    23   ar
    26    23    24   ar
    27    24    25   ar
    28    25    27    1
    29    28    27    1
    30    28    29    1
    31    29    30    1
    32    30    31    1
    33    31    32    1
    34    25    26   ar
    35     6     2    1
    36    26    21   ar
    37    14     9   ar
    38    32    28    1
    39    18    12    1
    40    15    19    1
@<TRIPOS>MOLECULE
*****
 36 40 0 0 0
SMALL
GASTEIGER

@<TRIPOS>ATOM
      1 C         138.3108  138.7750  163.3130 C.3     1  UNL1        0.0768
      2 N         138.1294  140.2574  163.1736 N.3     1  UNL1       -0.2724
      3 C         138.1194  141.0273  161.8862 C.3     1  UNL1        0.0721
      4 C         137.9099  142.4759  162.2140 C.3     1  UNL1        0.0187
      5 C         137.7905  142.6015  163.7040 C.3     1  UNL1        0.0178
      6 C         137.9261  141.2303  164.2970 C.3     1  UNL1        0.0721
      7 C         137.5736  143.8746  164.4669 C.3     1  UNL1        0.0077
      8 C         138.6979  144.4766  165.2564 C.3     1  UNL1        0.0459
      9 C         140.0898  143.9367  165.1109 C.ar    1  UNL1        0.0603
     10 C         140.6491  143.0139  166.1528 C.ar    1  UNL1        0.0145
     11 C         142.0410  142.4741  166.0073 C.ar    1  UNL1       -0.0003
     12 C         142.8736  142.8570  164.8198 C.ar    1  UNL1        0.0092
     13 C         142.3144  143.7798  163.7778 C.ar    1  UNL1        0.1240
     14 N         140.9224  144.3197  163.9234 N.ar    1  UNL1       -0.2356
     15 N         143.1469  144.1627  162.5903 N.pl3   1  UNL1       -0.3184
     16 C         144.5388  143.6229  162.4448 C.3     1  UNL1        0.0885
     17 C         145.0981  142.7001  163.4868 C.3     1  UNL1        0.0260
     18 C         144.2655  142.3172  164.6742 C.3     1  UNL1        0.0309
     19 H         142.7798  144.7684  161.9065 H       1  UNL1        0.1482
     20 C         139.1803  138.2252  164.4047 C.3     1  UNL1        0.0439
     21 C         140.6693  138.3922  164.3333 C.ar    1  UNL1       -0.0178
     22 C         141.4345  138.8257  165.5485 C.ar    1  UNL1       -0.0040
     23 C         142.9234  138.9927  165.4771 C.ar    1  UNL1        0.0028
     24 C         143.6472  138.7262  164.1906 C.ar    1  UNL1        0.0369
     25 C         142.8821  138.2927  162.9754 C.ar    1  UNL1        0.1382
     26 C         141.3931  138.1257  163.0468 C.ar    1  UNL1        0.0327
     27 O         143.6059  138.0262  161.6889 O.3     1  UNL1       -0.4765
     28 C         143.5222  139.0137  160.5629 C.3     1  UNL1        0.1978
     29 C         143.0989  138.7125  159.1558 C.3     1  UNL1        0.0782
     30 C         143.1622  139.9883  158.3695 C.3     1  UNL1        0.1461
     31 O         143.6246  141.0781  159.2908 O.3     1  UNL1       -0.3498
     32 C         143.8471  140.4757  160.6463 C.3     1  UNL1        0.1855
     33 C         138.5608  137.5083  165.5676 C.3     1  UNL1        0.0474
     34 O         138.6340  139.5895  167.1213 O.co2   1  UNL1       -0.5492
     35 C         138.0013  138.2903  166.7189 C.2     1  UNL1        0.0507
     36 O         136.8090  137.7731  167.4679 O.co2   1  UNL1       -0.5492
@<TRIPOS>UNITY_ATOM_ATTR
34 1
charge -1
@<TRIPOS>BOND
     1    34    35   ar
     2    35    36   ar
     3    35    33    1
     4    20    33    1
     5    20     1    1
     6     1     2    1
     7     2     3    1
     8     3     4    1
     9     4     5    1
    10     5     7    1
    11     7     8    1
    12     8     9    1
    13     9    10   ar
    14    10    11   ar
    15    11    12   ar
    16    12    13   ar
    17    13    14   ar
    18    13    15    1
    19    15    16    1
    20    16    17    1
    21    17    18    1
    22     5     6    1
    23    20    21    1
    24    21    22   ar
    25    22    23   ar
    26    23    24   ar
    27    24    25   ar
    28    25    27    1
    29    28    27    1
    30    28    29    1
    31    29    30    1
    32    30    31    1
    33    31    32    1
    34    25    26   ar
    35     6     2    1
    36    26    21   ar
    37    14     9   ar
    38    32    28    1
    39    18    12    1
    40    15    19    1
@<TRIPOS>MOLECULE
*****
 36 40 0 0 0
SMALL
GASTEIGER

@<TRIPOS>ATOM
      1 C         140.7300  144.0537  164.9887 C.3     1  UNL1        0.0768
      2 N         141.9299  143.4645  164.3081 N.3     1  UNL1       -0.2724
      3 C         142.3963  143.7765  162.9170 C.3     1  UNL1        0.0721
      4 C         143.6287  142.9646  162.6483 C.3     1  UNL1        0.0187
      5 C         143.9239  142.1509  163.8733 C.3     1  UNL1        0.0178
      6 C         142.8740  142.4598  164.8991 C.3     1  UNL1        0.0721
      7 C         145.0681  141.1959  164.0428 C.3     1  UNL1        0.0077
      8 C         144.8452  139.7217  163.8783 C.3     1  UNL1        0.0459
      9 C         143.4528  139.1868  163.7192 C.ar    1  UNL1        0.0603
     10 C         142.7700  138.5174  164.8749 C.ar    1  UNL1        0.0145
     11 C         141.3777  137.9825  164.7160 C.ar    1  UNL1       -0.0003
     12 C         140.6681  138.1171  163.4012 C.ar    1  UNL1        0.0092
     13 C         141.3509  138.7865  162.2455 C.ar    1  UNL1        0.1240
     14 N         142.7433  139.3214  162.4046 N.ar    1  UNL1       -0.2356
     15 N         140.6414  138.9210  160.9308 N.pl3   1  UNL1       -0.3184
     16 C         139.2491  138.3861  160.7719 C.3     1  UNL1        0.0885
     17 C         138.5663  137.7167  161.9276 C.3     1  UNL1        0.0260
     18 C         139.2758  137.5822  163.2422 C.3     1  UNL1        0.0309
     19 H         141.0895  139.3604  160.1723 H       1  UNL1        0.1482
     20 C         139.4057  143.3534  164.9132 C.3     1  UNL1        0.0439
     21 C         139.2282  142.0126  165.5619 C.ar    1  UNL1       -0.0178
     22 C         138.2820  141.0115  164.9683 C.ar    1  UNL1       -0.0040
     23 C         138.1046  139.6708  165.6170 C.ar    1  UNL1        0.0028
     24 C         138.8734  139.3311  166.8594 C.ar    1  UNL1        0.0369
     25 C         139.8197  140.3321  167.4531 C.ar    1  UNL1        0.1382
     26 C         139.9971  141.6729  166.8043 C.ar    1  UNL1        0.0327
     27 O         140.5885  139.9924  168.6954 O.3     1  UNL1       -0.4765
     28 C         141.2820  141.0752  169.4678 C.3     1  UNL1        0.1978
     29 C         142.7140  141.4927  169.3089 C.3     1  UNL1        0.0782
     30 C         142.9824  142.6062  170.2776 C.3     1  UNL1        0.1461
     31 O         141.7162  142.8768  171.0350 O.3     1  UNL1       -0.3498
     32 C         140.6654  141.9306  170.5346 C.3     1  UNL1        0.1855
     33 C         138.2588  143.9939  164.1891 C.3     1  UNL1        0.0474
     34 O         137.8148  143.0683  161.8024 O.co2   1  UNL1       -0.5492
     35 C         138.3126  144.1626  162.6995 C.2     1  UNL1        0.0507
     36 O         138.8641  145.4255  162.1071 O.co2   1  UNL1       -0.5492
@<TRIPOS>UNITY_ATOM_ATTR
34 1
charge -1
@<TRIPOS>BOND
     1    34    35   ar
     2    35    36   ar
     3    35    33    1
     4    20    33    1
     5    20     1    1
     6     1     2    1
     7     2     3    1
     8     3     4    1
     9     4     5    1
    10     5     7    1
    11     7     8    1
    12     8     9    1
    13     9    10   ar
    14    10    11   ar
    15    11    12   ar
    16    12    13   ar
    17    13    14   ar
    18    13    15    1
    19    15    16    1
    20    16    17    1
    21    17    18    1
    22     5     6    1
    23    20    21    1
    24    21    22   ar
    25    22    23   ar
    26    23    24   ar
    27    24    25   ar
    28    25    27    1
    29    28    27    1
    30    28    29    1
    31    29    30    1
    32    30    31    1
    33    31    32    1
    34    25    26   ar
    35     6     2    1
    36    26    21   ar
    37    14     9   ar
    38    32    28    1
    39    18    12    1
    40    15    19    1
@<TRIPOS>MOLECULE
*****
 36 40 0 0 0
SMALL
GASTEIGER

@<TRIPOS>ATOM
      1 C         138.7569  143.7567  163.3458 C.3     1  UNL1        0.0768
      2 N         138.4866  142.5217  162.5386 N.3     1  UNL1       -0.2724
      3 C         138.3343  142.4586  161.0476 C.3     1  UNL1        0.0721
      4 C         138.0747  141.0309  160.6682 C.3     1  UNL1        0.0187
      5 C         138.0664  140.2115  161.9245 C.3     1  UNL1        0.0178
      6 C         138.3210  141.1328  163.0805 C.3     1  UNL1        0.0721
      7 C         137.8428  138.7307  162.0099 C.3     1  UNL1        0.0077
      8 C         139.0104  137.7912  161.9475 C.3     1  UNL1        0.0459
      9 C         140.2757  138.1172  162.6843 C.ar    1  UNL1        0.0603
     10 C         140.5160  137.5473  164.0508 C.ar    1  UNL1        0.0145
     11 C         141.7812  137.8733  164.7876 C.ar    1  UNL1       -0.0003
     12 C         142.8063  138.7693  164.1578 C.ar    1  UNL1        0.0092
     13 C         142.5660  139.3392  162.7913 C.ar    1  UNL1        0.1240
     14 N         141.3007  139.0131  162.0545 N.ar    1  UNL1       -0.2356
     15 N         143.5910  140.2351  162.1615 N.pl3   1  UNL1       -0.3184
     16 C         144.8562  140.5611  162.8983 C.3     1  UNL1        0.0885
     17 C         145.0965  139.9912  164.2648 C.3     1  UNL1        0.0260
     18 C         144.0715  139.0953  164.8946 C.3     1  UNL1        0.0309
     19 H         143.4333  140.6092  161.2646 H       1  UNL1        0.1482
     20 C         140.1547  144.2896  163.4560 C.3     1  UNL1        0.0439
     21 C         141.1343  143.6388  164.3872 C.ar    1  UNL1       -0.0178
     22 C         142.5991  143.9370  164.2628 C.ar    1  UNL1       -0.0040
     23 C         143.5786  143.2861  165.1940 C.ar    1  UNL1        0.0028
     24 C         143.0933  142.3372  166.2494 C.ar    1  UNL1        0.0369
     25 C         141.6285  142.0390  166.3738 C.ar    1  UNL1        0.1382
     26 C         140.6490  142.6898  165.4426 C.ar    1  UNL1        0.0327
     27 O         141.1432  141.0900  167.4292 O.3     1  UNL1       -0.4765
     28 C         140.6418  141.6191  168.7401 C.3     1  UNL1        0.1978
     29 C         140.4731  143.0653  169.1007 C.3     1  UNL1        0.0782
     30 C         139.9481  143.1349  170.5041 C.3     1  UNL1        0.1461
     31 O         139.7923  141.7317  171.0109 O.3     1  UNL1       -0.3498
     32 C         140.2211  140.7949  169.9207 C.3     1  UNL1        0.1855
     33 C         140.5730  145.4733  162.6351 C.3     1  UNL1        0.0474
     34 O         142.1119  144.7311  160.6778 O.co2   1  UNL1       -0.5492
     35 C         140.8191  145.3164  161.1637 C.2     1  UNL1        0.0507
     36 O         139.7724  145.7446  160.1784 O.co2   1  UNL1       -0.5492
@<TRIPOS>UNITY_ATOM_ATTR
34 1
charge -1
@<TRIPOS>BOND
     1    34    35   ar
     2    35    36   ar
     3    35    33    1
     4    20    33    1
     5    20     1    1
     6     1     2    1
     7     2     3    1
     8     3     4    1
     9     4     5    1
    10     5     7    1
    11     7     8    1
    12     8     9    1
    13     9    10   ar
    14    10    11   ar
    15    11    12   ar
    16    12    13   ar
    17    13    14   ar
    18    13    15    1
    19    15    16    1
    20    16    17    1
    21    17    18    1
    22     5     6    1
    23    20    21    1
    24    21    22   ar
    25    22    23   ar
    26    23    24   ar
    27    24    25   ar
    28    25    27    1
    29    28    27    1
    30    28    29    1
    31    29    30    1
    32    30    31    1
    33    31    32    1
    34    25    26   ar
    35     6     2    1
    36    26    21   ar
    37    14     9   ar
    38    32    28    1
    39    18    12    1
    40    15    19    1
@<TRIPOS>MOLECULE
*****
 36 40 0 0 0
SMALL
GASTEIGER

@<TRIPOS>ATOM
      1 C         141.0942  140.3863  167.3419 C.3     1  UNL1        0.0768
      2 N         142.0780  139.9895  166.2814 N.3     1  UNL1       -0.2724
      3 C         142.0424  138.7256  165.4741 C.3     1  UNL1        0.0721
      4 C         143.2125  138.7419  164.5358 C.3     1  UNL1        0.0187
      5 C         143.9713  140.0158  164.7630 C.3     1  UNL1        0.0178
      6 C         143.2701  140.7868  165.8418 C.3     1  UNL1        0.0721
      7 C         145.2131  140.4435  164.0385 C.3     1  UNL1        0.0077
      8 C         145.4659  141.8989  163.7784 C.3     1  UNL1        0.0459
      9 C         144.3222  142.8115  163.4478 C.ar    1  UNL1        0.0603
     10 C         143.9966  143.9636  164.3514 C.ar    1  UNL1        0.0145
     11 C         142.8530  144.8762  164.0208 C.ar    1  UNL1       -0.0003
     12 C         142.0348  144.6365  162.7865 C.ar    1  UNL1        0.0092
     13 C         142.3604  143.4843  161.8829 C.ar    1  UNL1        0.1240
     14 N         143.5041  142.5718  162.2136 N.ar    1  UNL1       -0.2356
     15 N         141.5423  143.2447  160.6487 N.pl3   1  UNL1       -0.3184
     16 C         140.3987  144.1572  160.3181 C.3     1  UNL1        0.0885
     17 C         140.0731  145.3094  161.2217 C.3     1  UNL1        0.0260
     18 C         140.8912  145.5490  162.4559 C.3     1  UNL1        0.0309
     19 H         141.7560  142.4885  160.0557 H       1  UNL1        0.1482
     20 C         140.5920  141.7982  167.4086 C.3     1  UNL1        0.0439
     21 C         139.7351  142.3424  166.3042 C.ar    1  UNL1       -0.0178
     22 C         139.5585  143.8242  166.1527 C.ar    1  UNL1       -0.0040
     23 C         138.7016  144.3683  165.0483 C.ar    1  UNL1        0.0028
     24 C         138.0212  143.4306  164.0955 C.ar    1  UNL1        0.0369
     25 C         138.1978  141.9488  164.2470 C.ar    1  UNL1        0.1382
     26 C         139.0547  141.4047  165.3514 C.ar    1  UNL1        0.0327
     27 O         137.5174  141.0111  163.2942 O.3     1  UNL1       -0.4765
     28 C         138.3314  140.0576  162.4708 C.3     1  UNL1        0.1978
     29 C         139.4672  140.4247  161.5624 C.3     1  UNL1        0.0782
     30 C         139.9904  139.1635  160.9413 C.3     1  UNL1        0.1461
     31 O         139.1779  138.0169  161.4659 O.3     1  UNL1       -0.3498
     32 C         138.1526  138.5695  162.4111 C.3     1  UNL1        0.1855
     33 C         140.9468  142.6658  168.5796 C.3     1  UNL1        0.0474
     34 O         139.2951  141.5027  170.2135 O.co2   1  UNL1       -0.5492
     35 C         140.0353  142.7295  169.7693 C.2     1  UNL1        0.0507
     36 O         139.8640  144.0198  170.5146 O.co2   1  UNL1       -0.5492
@<TRIPOS>UNITY_ATOM_ATTR
34 1
charge -1
@<TRIPOS>BOND
     1    34    35   ar
     2    35    36   ar
     3    35    33    1
     4    20    33    1
     5    20     1    1
     6     1     2    1
     7     2     3    1
     8     3     4    1
     9     4     5    1
    10     5     7    1
    11     7     8    1
    12     8     9    1
    13     9    10   ar
    14    10    11   ar
    15    11    12   ar
    16    12    13   ar
    17    13    14   ar
    18    13    15    1
    19    15    16    1
    20    16    17    1
    21    17    18    1
    22     5     6    1
    23    20    21    1
    24    21    22   ar
    25    22    23   ar
    26    23    24   ar
    27    24    25   ar
    28    25    27    1
    29    28    27    1
    30    28    29    1
    31    29    30    1
    32    30    31    1
    33    31    32    1
    34    25    26   ar
    35     6     2    1
    36    26    21   ar
    37    14     9   ar
    38    32    28    1
    39    18    12    1
    40    15    19    1
@<TRIPOS>MOLECULE
*****
 36 40 0 0 0
SMALL
GASTEIGER

@<TRIPOS>ATOM
      1 C         143.0670  138.1627  162.7913 C.3     1  UNL1        0.0768
      2 N         141.6313  137.9545  163.1725 N.3     1  UNL1       -0.2724
      3 C         140.4651  137.9177  162.2298 C.3     1  UNL1        0.0721
      4 C         139.2228  137.6870  163.0381 C.3     1  UNL1        0.0187
      5 C         139.6211  137.5813  164.4804 C.3     1  UNL1        0.0178
      6 C         141.1097  137.7466  164.5634 C.3     1  UNL1        0.0721
      7 C         138.6937  137.3507  165.6365 C.3     1  UNL1        0.0077
      8 C         138.0025  138.5123  166.2868 C.3     1  UNL1        0.0459
      9 C         138.8097  139.6033  166.9259 C.ar    1  UNL1        0.0603
     10 C         139.3637  140.7162  166.0866 C.ar    1  UNL1        0.0145
     11 C         140.1708  141.8072  166.7256 C.ar    1  UNL1       -0.0003
     12 C         140.4239  141.7852  168.2040 C.ar    1  UNL1        0.0092
     13 C         139.8698  140.6723  169.0433 C.ar    1  UNL1        0.1240
     14 N         139.0627  139.5813  168.4042 N.ar    1  UNL1       -0.2356
     15 N         140.1228  140.6503  170.5216 N.pl3   1  UNL1       -0.3184
     16 C         140.9299  141.7413  171.1606 C.3     1  UNL1        0.0885
     17 C         141.4840  142.8542  170.3213 C.3     1  UNL1        0.0260
     18 C         141.2310  142.8762  168.8430 C.3     1  UNL1        0.0309
     19 H         139.7592  139.9199  171.0724 H       1  UNL1        0.1482
     20 C         143.4944  139.4516  162.1540 C.3     1  UNL1        0.0439
     21 C         143.4336  140.7309  162.9350 C.ar    1  UNL1       -0.0178
     22 C         144.2007  140.8641  164.2171 C.ar    1  UNL1       -0.0040
     23 C         144.1398  142.1433  164.9980 C.ar    1  UNL1        0.0028
     24 C         143.3118  143.2893  164.4969 C.ar    1  UNL1        0.0369
     25 C         142.5446  143.1561  163.2149 C.ar    1  UNL1        0.1382
     26 C         142.6055  141.8769  162.4339 C.ar    1  UNL1        0.0327
     27 O         141.7166  144.3020  162.7138 O.3     1  UNL1       -0.4765
     28 C         140.2195  144.2121  162.7370 C.3     1  UNL1        0.1978
     29 C         139.3412  144.4370  163.9320 C.3     1  UNL1        0.0782
     30 C         137.9166  144.2453  163.5029 C.3     1  UNL1        0.1461
     31 O         137.9146  143.9019  162.0427 O.3     1  UNL1       -0.3498
     32 C         139.3378  143.8813  161.5694 C.3     1  UNL1        0.1855
     33 C         143.9827  139.4613  160.7357 C.3     1  UNL1        0.0474
     34 O         142.0822  139.9571  159.0350 O.co2   1  UNL1       -0.5492
     35 C         143.0791  139.0062  159.6283 C.2     1  UNL1        0.0507
     36 O         143.1724  137.6001  159.1141 O.co2   1  UNL1       -0.5492
@<TRIPOS>UNITY_ATOM_ATTR
34 1
charge -1
@<TRIPOS>BOND
     1    34    35   ar
     2    35    36   ar
     3    35    33    1
     4    20    33    1
     5    20     1    1
     6     1     2    1
     7     2     3    1
     8     3     4    1
     9     4     5    1
    10     5     7    1
    11     7     8    1
    12     8     9    1
    13     9    10   ar
    14    10    11   ar
    15    11    12   ar
    16    12    13   ar
    17    13    14   ar
    18    13    15    1
    19    15    16    1
    20    16    17    1
    21    17    18    1
    22     5     6    1
    23    20    21    1
    24    21    22   ar
    25    22    23   ar
    26    23    24   ar
    27    24    25   ar
    28    25    27    1
    29    28    27    1
    30    28    29    1
    31    29    30    1
    32    30    31    1
    33    31    32    1
    34    25    26   ar
    35     6     2    1
    36    26    21   ar
    37    14     9   ar
    38    32    28    1
    39    18    12    1
    40    15    19    1
