@<TRIPOS>MOLECULE
*****
 36 41 0 0 0
SMALL
GASTEIGER

@<TRIPOS>ATOM
      1 C         139.5736  140.0062  160.9167 C.3     1  UNL1        0.0722
      2 C         139.3353  140.9263  159.7563 C.ar    1  UNL1        0.1246
      3 N         138.2672  140.7728  158.7144 N.ar    1  UNL1       -0.2305
      4 C         138.3950  141.9130  157.7481 C.ar    1  UNL1        0.1015
      5 C         137.6151  142.2808  156.5208 C.ar    1  UNL1        0.0548
      6 C         137.9823  143.5067  155.7381 C.ar    1  UNL1        0.0046
      7 C         139.1294  144.3647  156.1829 C.ar    1  UNL1        0.0018
      8 C         139.9093  143.9970  157.4103 C.ar    1  UNL1        0.0191
      9 C         139.5421  142.7711  158.1929 C.ar    1  UNL1        0.0827
     10 N         140.1233  142.1613  159.4340 N.ar    1  UNL1       -0.2935
     11 C         141.2879  142.6931  160.2156 C.ar    1  UNL1        0.0703
     12 C         142.6889  142.3973  159.7687 C.ar    1  UNL1        0.0383
     13 C         143.8535  142.9291  160.5502 C.ar    1  UNL1        0.1004
     14 N         143.6171  143.7567  161.7787 N.ar    1  UNL1       -0.2414
     15 C         142.2161  144.0525  162.2256 C.ar    1  UNL1        0.1122
     16 C         141.9798  144.8801  163.4542 C.ar    1  UNL1        0.1578
     17 F         143.1443  145.4119  164.2357 F       1  UNL1       -0.2026
     18 C         140.5788  145.1759  163.9011 C.ar    1  UNL1        0.0335
     19 C         139.4141  144.6440  163.1195 C.ar    1  UNL1        0.0321
     20 C         139.6505  143.8165  161.8910 C.ar    1  UNL1        0.1431
     21 F         138.4277  143.4933  161.4191 F       1  UNL1       -0.2041
     22 C         141.0515  143.5207  161.4441 C.ar    1  UNL1        0.0635
     23 C         136.4681  141.4227  156.0760 C.ar    1  UNL1        0.1647
     24 N         136.4931  139.9316  155.9145 N.ar    1  UNL1       -0.1288
     25 N         135.1350  139.4924  155.4533 N.ar    1  UNL1       -0.1258
     26 C         134.2706  140.7121  155.3297 C.ar    1  UNL1        0.1992
     27 N         135.0944  141.9050  155.7145 N.ar    1  UNL1       -0.3187
     28 H         134.7875  142.8403  155.7275 H       1  UNL1        0.1690
     29 C         139.4965  145.5906  155.4003 C.ar    1  UNL1        0.0038
     30 C         140.4332  145.4830  154.2337 C.ar    1  UNL1        0.0207
     31 C         140.8004  146.7089  153.4511 C.ar    1  UNL1        0.0996
     32 N         140.2308  148.0423  153.8351 N.ar    1  UNL1       -0.2335
     33 C         139.2942  148.1499  155.0017 C.ar    1  UNL1        0.1492
     34 C         138.9270  146.9241  155.7844 C.ar    1  UNL1        0.0297
     35 C         138.7247  149.4834  155.3857 C.1     1  UNL1        0.1198
     36 N         138.1551  150.8169  155.7698 N.1     1  UNL1       -0.1893
@<TRIPOS>BOND
     1     1     2    1
     2     2     3   ar
     3     3     4   ar
     4     4     5   ar
     5     5    23    1
     6    23    24   ar
     7    24    25   ar
     8    25    26   ar
     9    26    27   ar
    10     5     6   ar
    11     6     7   ar
    12     7    29    1
    13    29    30   ar
    14    30    31   ar
    15    31    32   ar
    16    32    33   ar
    17    33    35    1
    18    35    36    3
    19    33    34   ar
    20     7     8   ar
    21     8     9   ar
    22     9    10   ar
    23    10    11    1
    24    11    12   ar
    25    12    13   ar
    26    13    14   ar
    27    14    15   ar
    28    15    16   ar
    29    16    17    1
    30    16    18   ar
    31    18    19   ar
    32    19    20   ar
    33    20    21    1
    34    20    22   ar
    35    10     2   ar
    36    22    11   ar
    37     9     4   ar
    38    22    15   ar
    39    27    23   ar
    40    34    29   ar
    41    27    28    1
@<TRIPOS>MOLECULE
*****
 36 41 0 0 0
SMALL
GASTEIGER

@<TRIPOS>ATOM
      1 C         141.5195  142.5395  159.9029 C.3     1  UNL1        0.0722
      2 C         141.9107  141.3396  159.0923 C.ar    1  UNL1        0.1246
      3 N         142.9876  141.2934  158.0491 N.ar    1  UNL1       -0.2305
      4 C         143.0362  139.9005  157.4945 C.ar    1  UNL1        0.1015
      5 C         143.8985  139.2687  156.4423 C.ar    1  UNL1        0.0548
      6 C         143.7139  137.8222  156.0904 C.ar    1  UNL1        0.0046
      7 C         142.6671  137.0076  156.7908 C.ar    1  UNL1        0.0018
      8 C         141.8048  137.6395  157.8431 C.ar    1  UNL1        0.0191
      9 C         141.9894  139.0859  158.1949 C.ar    1  UNL1        0.0827
     10 N         141.2938  139.9753  159.1824 N.ar    1  UNL1       -0.2935
     11 C         140.1772  139.5714  160.0990 C.ar    1  UNL1        0.0703
     12 C         138.7574  139.8959  159.7400 C.ar    1  UNL1        0.0383
     13 C         137.6409  139.4920  160.6566 C.ar    1  UNL1        0.1004
     14 N         137.9442  138.7635  161.9322 N.ar    1  UNL1       -0.2414
     15 C         139.3639  138.4389  162.2912 C.ar    1  UNL1        0.1122
     16 C         139.6671  137.7104  163.5670 C.ar    1  UNL1        0.1578
     17 F         138.5506  137.3065  164.4835 F       1  UNL1       -0.2026
     18 C         141.0869  137.3858  163.9260 C.ar    1  UNL1        0.0335
     19 C         142.2035  137.7898  163.0094 C.ar    1  UNL1        0.0321
     20 C         141.9002  138.5183  161.7337 C.ar    1  UNL1        0.1431
     21 F         143.0919  138.7387  161.1388 F       1  UNL1       -0.2041
     22 C         140.4805  138.8429  161.3747 C.ar    1  UNL1        0.0635
     23 C         144.9453  140.0832  155.7419 C.ar    1  UNL1        0.1647
     24 N         145.1786  140.1336  154.2610 N.ar    1  UNL1       -0.1288
     25 N         146.3202  141.0720  154.0033 N.ar    1  UNL1       -0.1258
     26 C         146.7924  141.6015  155.3249 C.ar    1  UNL1        0.1992
     27 N         145.9427  140.9904  156.3994 N.ar    1  UNL1       -0.3187
     28 H         146.0252  141.1557  157.3664 H       1  UNL1        0.1690
     29 C         142.4825  135.5612  156.4389 C.ar    1  UNL1        0.0038
     30 C         141.4369  135.1596  155.4412 C.ar    1  UNL1        0.0207
     31 C         141.2523  133.7132  155.0893 C.ar    1  UNL1        0.0996
     32 N         142.1133  132.6684  155.7352 N.ar    1  UNL1       -0.2335
     33 C         143.1588  133.0700  156.7329 C.ar    1  UNL1        0.1492
     34 C         143.3434  134.5165  157.0848 C.ar    1  UNL1        0.0297
     35 C         144.0197  132.0253  157.3788 C.1     1  UNL1        0.1198
     36 N         144.8808  130.9804  158.0248 N.1     1  UNL1       -0.1893
@<TRIPOS>BOND
     1     1     2    1
     2     2     3   ar
     3     3     4   ar
     4     4     5   ar
     5     5    23    1
     6    23    24   ar
     7    24    25   ar
     8    25    26   ar
     9    26    27   ar
    10     5     6   ar
    11     6     7   ar
    12     7    29    1
    13    29    30   ar
    14    30    31   ar
    15    31    32   ar
    16    32    33   ar
    17    33    35    1
    18    35    36    3
    19    33    34   ar
    20     7     8   ar
    21     8     9   ar
    22     9    10   ar
    23    10    11    1
    24    11    12   ar
    25    12    13   ar
    26    13    14   ar
    27    14    15   ar
    28    15    16   ar
    29    16    17    1
    30    16    18   ar
    31    18    19   ar
    32    19    20   ar
    33    20    21    1
    34    20    22   ar
    35    10     2   ar
    36    22    11   ar
    37     9     4   ar
    38    22    15   ar
    39    27    23   ar
    40    34    29   ar
    41    27    28    1
@<TRIPOS>MOLECULE
*****
 36 41 0 0 0
SMALL
GASTEIGER

@<TRIPOS>ATOM
      1 C         138.1824  142.4992  161.9549 C.3     1  UNL1        0.0722
      2 C         138.7602  141.7559  160.7872 C.ar    1  UNL1        0.1246
      3 N         138.1192  141.5938  159.4407 N.ar    1  UNL1       -0.2305
      4 C         139.0433  140.7819  158.5822 C.ar    1  UNL1        0.1015
      5 C         138.9376  140.3081  157.1630 C.ar    1  UNL1        0.0548
      6 C         140.0440  139.4945  156.5596 C.ar    1  UNL1        0.0046
      7 C         141.2560  139.1548  157.3754 C.ar    1  UNL1        0.0018
      8 C         141.3616  139.6287  158.7947 C.ar    1  UNL1        0.0191
      9 C         140.2553  140.4422  159.3981 C.ar    1  UNL1        0.0827
     10 N         140.0803  141.0442  160.7608 N.ar    1  UNL1       -0.2935
     11 C         141.0545  140.9508  161.8976 C.ar    1  UNL1        0.0703
     12 C         141.9873  142.0907  162.1815 C.ar    1  UNL1        0.0383
     13 C         142.9615  141.9974  163.3183 C.ar    1  UNL1        0.1004
     14 N         143.0028  140.7642  164.1711 N.ar    1  UNL1       -0.2414
     15 C         142.0700  139.6243  163.8873 C.ar    1  UNL1        0.1122
     16 C         142.1114  138.3910  164.7402 C.ar    1  UNL1        0.1578
     17 F         143.0856  138.2977  165.8770 F       1  UNL1       -0.2026
     18 C         141.1786  137.2512  164.4563 C.ar    1  UNL1        0.0335
     19 C         140.2044  137.3445  163.3195 C.ar    1  UNL1        0.0321
     20 C         140.1631  138.5777  162.4666 C.ar    1  UNL1        0.1431
     21 F         139.2003  138.3609  161.5455 F       1  UNL1       -0.2041
     22 C         141.0959  139.7176  162.7505 C.ar    1  UNL1        0.0635
     23 C         137.7257  140.6477  156.3471 C.ar    1  UNL1        0.1647
     24 N         137.7173  141.0233  154.8949 N.ar    1  UNL1       -0.1288
     25 N         136.2957  141.2791  154.4905 N.ar    1  UNL1       -0.1258
     26 C         135.4254  141.0617  155.6927 C.ar    1  UNL1        0.1992
     27 N         136.3091  140.6715  156.8402 N.ar    1  UNL1       -0.3187
     28 H         136.0117  140.4669  157.7561 H       1  UNL1        0.1690
     29 C         142.3624  138.3412  156.7721 C.ar    1  UNL1        0.0038
     30 C         143.3758  138.9970  155.8816 C.ar    1  UNL1        0.0207
     31 C         144.4822  138.1834  155.2782 C.ar    1  UNL1        0.0996
     32 N         144.5751  136.7141  155.5654 N.ar    1  UNL1       -0.2335
     33 C         143.5618  136.0584  156.4558 C.ar    1  UNL1        0.1492
     34 C         142.4553  136.8719  157.0592 C.ar    1  UNL1        0.0297
     35 C         143.6547  134.5891  156.7429 C.1     1  UNL1        0.1198
     36 N         143.7477  133.1197  157.0301 N.1     1  UNL1       -0.1893
@<TRIPOS>BOND
     1     1     2    1
     2     2     3   ar
     3     3     4   ar
     4     4     5   ar
     5     5    23    1
     6    23    24   ar
     7    24    25   ar
     8    25    26   ar
     9    26    27   ar
    10     5     6   ar
    11     6     7   ar
    12     7    29    1
    13    29    30   ar
    14    30    31   ar
    15    31    32   ar
    16    32    33   ar
    17    33    35    1
    18    35    36    3
    19    33    34   ar
    20     7     8   ar
    21     8     9   ar
    22     9    10   ar
    23    10    11    1
    24    11    12   ar
    25    12    13   ar
    26    13    14   ar
    27    14    15   ar
    28    15    16   ar
    29    16    17    1
    30    16    18   ar
    31    18    19   ar
    32    19    20   ar
    33    20    21    1
    34    20    22   ar
    35    10     2   ar
    36    22    11   ar
    37     9     4   ar
    38    22    15   ar
    39    27    23   ar
    40    34    29   ar
    41    27    28    1
@<TRIPOS>MOLECULE
*****
 36 41 0 0 0
SMALL
GASTEIGER

@<TRIPOS>ATOM
      1 C         143.2735  140.1419  162.8664 C.3     1  UNL1        0.0722
      2 C         142.5068  140.3871  161.6006 C.ar    1  UNL1        0.1246
      3 N         142.4209  139.4562  160.4276 N.ar    1  UNL1       -0.2305
      4 C         141.5524  140.1000  159.3876 C.ar    1  UNL1        0.1015
      5 C         141.1139  139.6479  158.0263 C.ar    1  UNL1        0.0548
      6 C         140.2246  140.5246  157.1952 C.ar    1  UNL1        0.0046
      7 C         139.7738  141.8533  157.7257 C.ar    1  UNL1        0.0018
      8 C         140.2123  142.3053  159.0870 C.ar    1  UNL1        0.0191
      9 C         141.1017  141.4287  159.9180 C.ar    1  UNL1        0.0827
     10 N         141.6915  141.6061  161.2857 N.ar    1  UNL1       -0.2935
     11 C         141.4996  142.7941  162.1813 C.ar    1  UNL1        0.0703
     12 C         142.5542  143.8585  162.2515 C.ar    1  UNL1        0.0383
     13 C         142.3625  145.0464  163.1470 C.ar    1  UNL1        0.1004
     14 N         141.1161  145.1700  163.9723 N.ar    1  UNL1       -0.2414
     15 C         140.0615  144.1056  163.9021 C.ar    1  UNL1        0.1122
     16 C         138.8150  144.2292  164.7275 C.ar    1  UNL1        0.1578
     17 F         138.6232  145.4171  165.6230 F       1  UNL1       -0.2026
     18 C         137.7604  143.1648  164.6573 C.ar    1  UNL1        0.0335
     19 C         137.9523  141.9769  163.7617 C.ar    1  UNL1        0.0321
     20 C         139.1987  141.8533  162.9364 C.ar    1  UNL1        0.1431
     21 F         139.0769  140.6976  162.2493 F       1  UNL1       -0.2041
     22 C         140.2533  142.9177  163.0066 C.ar    1  UNL1        0.0635
     23 C         141.5647  138.3192  157.4959 C.ar    1  UNL1        0.1647
     24 N         140.7581  137.3947  156.6330 N.ar    1  UNL1       -0.1288
     25 N         141.5962  136.1858  156.3391 N.ar    1  UNL1       -0.1258
     26 C         142.9207  136.3633  157.0203 C.ar    1  UNL1        0.1992
     27 N         142.9013  137.6818  157.7353 N.ar    1  UNL1       -0.3187
     28 H         143.6367  138.0620  158.2681 H       1  UNL1        0.1690
     29 C         138.8845  142.7300  156.8947 C.ar    1  UNL1        0.0038
     30 C         137.5488  142.2240  156.4365 C.ar    1  UNL1        0.0207
     31 C         136.6595  143.1006  155.6055 C.ar    1  UNL1        0.0996
     32 N         137.1058  144.4833  155.2327 N.ar    1  UNL1       -0.2335
     33 C         138.4414  144.9893  155.6909 C.ar    1  UNL1        0.1492
     34 C         139.3308  144.1126  156.5219 C.ar    1  UNL1        0.0297
     35 C         138.8877  146.3720  155.3181 C.1     1  UNL1        0.1198
     36 N         139.3341  147.7547  154.9453 N.1     1  UNL1       -0.1893
@<TRIPOS>BOND
     1     1     2    1
     2     2     3   ar
     3     3     4   ar
     4     4     5   ar
     5     5    23    1
     6    23    24   ar
     7    24    25   ar
     8    25    26   ar
     9    26    27   ar
    10     5     6   ar
    11     6     7   ar
    12     7    29    1
    13    29    30   ar
    14    30    31   ar
    15    31    32   ar
    16    32    33   ar
    17    33    35    1
    18    35    36    3
    19    33    34   ar
    20     7     8   ar
    21     8     9   ar
    22     9    10   ar
    23    10    11    1
    24    11    12   ar
    25    12    13   ar
    26    13    14   ar
    27    14    15   ar
    28    15    16   ar
    29    16    17    1
    30    16    18   ar
    31    18    19   ar
    32    19    20   ar
    33    20    21    1
    34    20    22   ar
    35    10     2   ar
    36    22    11   ar
    37     9     4   ar
    38    22    15   ar
    39    27    23   ar
    40    34    29   ar
    41    27    28    1
@<TRIPOS>MOLECULE
*****
 36 41 0 0 0
SMALL
GASTEIGER

@<TRIPOS>ATOM
      1 C         137.7110  140.4572  162.6323 C.3     1  UNL1        0.0722
      2 C         138.4091  140.1073  161.3516 C.ar    1  UNL1        0.1246
      3 N         137.9399  140.4517  159.9692 N.ar    1  UNL1       -0.2305
      4 C         138.9397  139.9089  158.9916 C.ar    1  UNL1        0.1015
      5 C         139.0006  139.9458  157.4933 C.ar    1  UNL1        0.0548
      6 C         140.1488  139.3028  156.7732 C.ar    1  UNL1        0.0046
      7 C         141.2359  138.6229  157.5516 C.ar    1  UNL1        0.0018
      8 C         141.1749  138.5859  159.0499 C.ar    1  UNL1        0.0191
      9 C         140.0268  139.2289  159.7699 C.ar    1  UNL1        0.0827
     10 N         139.6989  139.3515  161.2285 N.ar    1  UNL1       -0.2935
     11 C         140.5172  138.8130  162.3644 C.ar    1  UNL1        0.0703
     12 C         140.0912  137.5577  163.0664 C.ar    1  UNL1        0.0383
     13 C         140.9095  137.0191  164.2024 C.ar    1  UNL1        0.1004
     14 N         142.1536  137.7358  164.6363 N.ar    1  UNL1       -0.2414
     15 C         142.5796  138.9910  163.9343 C.ar    1  UNL1        0.1122
     16 C         143.8238  139.7077  164.3683 C.ar    1  UNL1        0.1578
     17 F         144.6421  139.1691  165.5042 F       1  UNL1       -0.2026
     18 C         144.2498  140.9630  163.6663 C.ar    1  UNL1        0.0335
     19 C         143.4315  141.5016  162.5303 C.ar    1  UNL1        0.0321
     20 C         142.1873  140.7849  162.0964 C.ar    1  UNL1        0.1431
     21 F         141.6827  141.5032  161.0707 F       1  UNL1       -0.2041
     22 C         141.7614  139.5296  162.7984 C.ar    1  UNL1        0.0635
     23 C         137.9135  140.6258  156.7150 C.ar    1  UNL1        0.1647
     24 N         138.1092  141.5516  155.5512 N.ar    1  UNL1       -0.1288
     25 N         136.7564  141.9973  155.0808 N.ar    1  UNL1       -0.1258
     26 C         135.7246  141.3469  155.9539 C.ar    1  UNL1        0.1992
     27 N         136.4396  140.4993  156.9639 N.ar    1  UNL1       -0.3187
     28 H         136.0160  139.9554  157.6668 H       1  UNL1        0.1690
     29 C         142.3840  137.9799  156.8316 C.ar    1  UNL1        0.0038
     30 C         143.3673  138.8274  156.0801 C.ar    1  UNL1        0.0207
     31 C         144.5154  138.1845  155.3601 C.ar    1  UNL1        0.0996
     32 N         144.6802  136.6939  155.3916 N.ar    1  UNL1       -0.2335
     33 C         143.6970  135.8463  156.1430 C.ar    1  UNL1        0.1492
     34 C         142.5488  136.4893  156.8630 C.ar    1  UNL1        0.0297
     35 C         143.8617  134.3558  156.1745 C.1     1  UNL1        0.1198
     36 N         144.0265  132.8651  156.2059 N.1     1  UNL1       -0.1893
@<TRIPOS>BOND
     1     1     2    1
     2     2     3   ar
     3     3     4   ar
     4     4     5   ar
     5     5    23    1
     6    23    24   ar
     7    24    25   ar
     8    25    26   ar
     9    26    27   ar
    10     5     6   ar
    11     6     7   ar
    12     7    29    1
    13    29    30   ar
    14    30    31   ar
    15    31    32   ar
    16    32    33   ar
    17    33    35    1
    18    35    36    3
    19    33    34   ar
    20     7     8   ar
    21     8     9   ar
    22     9    10   ar
    23    10    11    1
    24    11    12   ar
    25    12    13   ar
    26    13    14   ar
    27    14    15   ar
    28    15    16   ar
    29    16    17    1
    30    16    18   ar
    31    18    19   ar
    32    19    20   ar
    33    20    21    1
    34    20    22   ar
    35    10     2   ar
    36    22    11   ar
    37     9     4   ar
    38    22    15   ar
    39    27    23   ar
    40    34    29   ar
    41    27    28    1
@<TRIPOS>MOLECULE
*****
 36 41 0 0 0
SMALL
GASTEIGER

@<TRIPOS>ATOM
      1 C         139.8831  145.9958  162.5305 C.3     1  UNL1        0.0722
      2 C         140.4288  145.3379  161.2978 C.ar    1  UNL1        0.1246
      3 N         140.0133  145.6283  159.8861 N.ar    1  UNL1       -0.2305
      4 C         140.8134  144.7440  158.9762 C.ar    1  UNL1        0.1015
      5 C         140.8310  144.5927  157.4840 C.ar    1  UNL1        0.0548
      6 C         141.7585  143.6045  156.8411 C.ar    1  UNL1        0.0046
      7 C         142.6685  142.7676  157.6906 C.ar    1  UNL1        0.0018
      8 C         142.6510  142.9190  159.1829 C.ar    1  UNL1        0.0191
      9 C         141.7234  143.9071  159.8256 C.ar    1  UNL1        0.0827
     10 N         141.4857  144.2742  161.2605 N.ar    1  UNL1       -0.2935
     11 C         142.1826  143.6815  162.4493 C.ar    1  UNL1        0.0703
     12 C         143.4377  144.3130  162.9747 C.ar    1  UNL1        0.0383
     13 C         144.1346  143.7204  164.1634 C.ar    1  UNL1        0.1004
     14 N         143.5764  142.4964  164.8268 N.ar    1  UNL1       -0.2414
     15 C         142.3213  141.8649  164.3014 C.ar    1  UNL1        0.1122
     16 C         141.7631  140.6408  164.9649 C.ar    1  UNL1        0.1578
     17 F         142.4600  140.0482  166.1536 F       1  UNL1       -0.2026
     18 C         140.5080  140.0094  164.4395 C.ar    1  UNL1        0.0335
     19 C         139.8111  140.6020  163.2507 C.ar    1  UNL1        0.0321
     20 C         140.3693  141.8261  162.5873 C.ar    1  UNL1        0.1431
     21 F         139.5328  142.1103  161.5666 F       1  UNL1       -0.2041
     22 C         141.6244  142.4575  163.1127 C.ar    1  UNL1        0.0635
     23 C         139.9210  145.4295  156.6346 C.ar    1  UNL1        0.1647
     24 N         138.9241  144.9151  155.6388 N.ar    1  UNL1       -0.1288
     25 N         138.2351  146.0954  155.0206 N.ar    1  UNL1       -0.1258
     26 C         138.8062  147.3393  155.6342 C.ar    1  UNL1        0.1992
     27 N         139.8481  146.9278  156.6317 N.ar    1  UNL1       -0.3187
     28 H         140.3892  147.5345  157.1870 H       1  UNL1        0.1690
     29 C         143.5961  141.7795  157.0478 C.ar    1  UNL1        0.0038
     30 C         143.1259  140.3834  156.7653 C.ar    1  UNL1        0.0207
     31 C         144.0534  139.3952  156.1225 C.ar    1  UNL1        0.0996
     32 N         145.4512  139.8032  155.7622 N.ar    1  UNL1       -0.2335
     33 C         145.9214  141.1992  156.0447 C.ar    1  UNL1        0.1492
     34 C         144.9938  142.1874  156.6875 C.ar    1  UNL1        0.0297
     35 C         147.3191  141.6071  155.6844 C.1     1  UNL1        0.1198
     36 N         148.7170  142.0151  155.3240 N.1     1  UNL1       -0.1893
@<TRIPOS>BOND
     1     1     2    1
     2     2     3   ar
     3     3     4   ar
     4     4     5   ar
     5     5    23    1
     6    23    24   ar
     7    24    25   ar
     8    25    26   ar
     9    26    27   ar
    10     5     6   ar
    11     6     7   ar
    12     7    29    1
    13    29    30   ar
    14    30    31   ar
    15    31    32   ar
    16    32    33   ar
    17    33    35    1
    18    35    36    3
    19    33    34   ar
    20     7     8   ar
    21     8     9   ar
    22     9    10   ar
    23    10    11    1
    24    11    12   ar
    25    12    13   ar
    26    13    14   ar
    27    14    15   ar
    28    15    16   ar
    29    16    17    1
    30    16    18   ar
    31    18    19   ar
    32    19    20   ar
    33    20    21    1
    34    20    22   ar
    35    10     2   ar
    36    22    11   ar
    37     9     4   ar
    38    22    15   ar
    39    27    23   ar
    40    34    29   ar
    41    27    28    1
@<TRIPOS>MOLECULE
*****
 36 41 0 0 0
SMALL
GASTEIGER

@<TRIPOS>ATOM
      1 C         139.1980  145.5122  162.5601 C.3     1  UNL1        0.0722
      2 C         139.8687  144.9036  161.3644 C.ar    1  UNL1        0.1246
      3 N         139.8952  145.4800  159.9799 N.ar    1  UNL1       -0.2305
      4 C         140.6735  144.5444  159.1030 C.ar    1  UNL1        0.1015
      5 C         141.0270  144.5947  157.6462 C.ar    1  UNL1        0.0548
      6 C         141.8351  143.4902  157.0319 C.ar    1  UNL1        0.0046
      7 C         142.2896  142.3355  157.8746 C.ar    1  UNL1        0.0018
      8 C         141.9361  142.2853  159.3314 C.ar    1  UNL1        0.0191
      9 C         141.1280  143.3897  159.9456 C.ar    1  UNL1        0.0827
     10 N         140.6306  143.6117  161.3433 N.ar    1  UNL1       -0.2935
     11 C         140.8557  142.7015  162.5142 C.ar    1  UNL1        0.0703
     12 C         139.9570  141.5199  162.7292 C.ar    1  UNL1        0.0383
     13 C         140.1820  140.6097  163.9001 C.ar    1  UNL1        0.1004
     14 N         141.3057  140.8812  164.8559 N.ar    1  UNL1       -0.2414
     15 C         142.2043  142.0628  164.6409 C.ar    1  UNL1        0.1122
     16 C         143.3279  142.3343  165.5969 C.ar    1  UNL1        0.1578
     17 F         143.5529  141.4242  166.7677 F       1  UNL1       -0.2026
     18 C         144.2266  143.5159  165.3819 C.ar    1  UNL1        0.0335
     19 C         144.0015  144.4261  164.2110 C.ar    1  UNL1        0.0321
     20 C         142.8779  144.1546  163.2551 C.ar    1  UNL1        0.1431
     21 F         142.9356  145.1321  162.3257 F       1  UNL1       -0.2041
     22 C         141.9793  142.9730  163.4701 C.ar    1  UNL1        0.0635
     23 C         140.5725  145.7493  156.8035 C.ar    1  UNL1        0.1647
     24 N         141.0107  146.0423  155.3992 N.ar    1  UNL1       -0.1288
     25 N         140.3090  147.2879  154.9450 N.ar    1  UNL1       -0.1258
     26 C         139.4371  147.7647  156.0686 C.ar    1  UNL1        0.1992
     27 N         139.6000  146.8139  157.2172 N.ar    1  UNL1       -0.3187
     28 H         139.1480  146.8773  158.0895 H       1  UNL1        0.1690
     29 C         143.0977  141.2311  157.2604 C.ar    1  UNL1        0.0038
     30 C         144.4615  141.5186  156.7059 C.ar    1  UNL1        0.0207
     31 C         145.2696  140.4142  156.0917 C.ar    1  UNL1        0.0996
     32 N         144.7138  139.0222  156.0319 N.ar    1  UNL1       -0.2335
     33 C         143.3501  138.7347  156.5863 C.ar    1  UNL1        0.1492
     34 C         142.5419  139.8391  157.2006 C.ar    1  UNL1        0.0297
     35 C         142.7943  137.3428  156.5265 C.1     1  UNL1        0.1198
     36 N         142.2386  135.9507  156.4667 N.1     1  UNL1       -0.1893
@<TRIPOS>BOND
     1     1     2    1
     2     2     3   ar
     3     3     4   ar
     4     4     5   ar
     5     5    23    1
     6    23    24   ar
     7    24    25   ar
     8    25    26   ar
     9    26    27   ar
    10     5     6   ar
    11     6     7   ar
    12     7    29    1
    13    29    30   ar
    14    30    31   ar
    15    31    32   ar
    16    32    33   ar
    17    33    35    1
    18    35    36    3
    19    33    34   ar
    20     7     8   ar
    21     8     9   ar
    22     9    10   ar
    23    10    11    1
    24    11    12   ar
    25    12    13   ar
    26    13    14   ar
    27    14    15   ar
    28    15    16   ar
    29    16    17    1
    30    16    18   ar
    31    18    19   ar
    32    19    20   ar
    33    20    21    1
    34    20    22   ar
    35    10     2   ar
    36    22    11   ar
    37     9     4   ar
    38    22    15   ar
    39    27    23   ar
    40    34    29   ar
    41    27    28    1
@<TRIPOS>MOLECULE
*****
 36 41 0 0 0
SMALL
GASTEIGER

@<TRIPOS>ATOM
      1 C         138.4411  139.3485  160.9532 C.3     1  UNL1        0.0722
      2 C         138.3828  140.3107  159.8039 C.ar    1  UNL1        0.1246
      3 N         137.3690  140.3031  158.6984 N.ar    1  UNL1       -0.2305
      4 C         137.6876  141.4370  157.7695 C.ar    1  UNL1        0.1015
      5 C         137.0318  141.9160  156.5085 C.ar    1  UNL1        0.0548
      6 C         137.5866  143.1035  155.7788 C.ar    1  UNL1        0.0046
      7 C         138.7973  143.8118  156.3104 C.ar    1  UNL1        0.0018
      8 C         139.4531  143.3328  157.5715 C.ar    1  UNL1        0.0191
      9 C         138.8983  142.1454  158.3011 C.ar    1  UNL1        0.0827
     10 N         139.3279  141.4492  159.5584 N.ar    1  UNL1       -0.2935
     11 C         140.4974  141.8257  160.4191 C.ar    1  UNL1        0.0703
     12 C         141.8674  141.3115  160.0894 C.ar    1  UNL1        0.0383
     13 C         143.0369  141.6879  160.9501 C.ar    1  UNL1        0.1004
     14 N         142.8363  142.5784  162.1403 N.ar    1  UNL1       -0.2414
     15 C         141.4662  143.0926  162.4699 C.ar    1  UNL1        0.1122
     16 C         141.2657  143.9831  163.6602 C.ar    1  UNL1        0.1578
     17 F         142.4351  144.3595  164.5208 F       1  UNL1       -0.2026
     18 C         139.8956  144.4973  163.9898 C.ar    1  UNL1        0.0335
     19 C         138.7262  144.1208  163.1292 C.ar    1  UNL1        0.0321
     20 C         138.9267  143.2303  161.9389 C.ar    1  UNL1        0.1431
     21 F         137.7081  143.0782  161.3784 F       1  UNL1       -0.2041
     22 C         140.2968  142.7162  161.6093 C.ar    1  UNL1        0.0635
     23 C         135.8212  141.2077  155.9769 C.ar    1  UNL1        0.1647
     24 N         135.1088  141.5205  154.6945 N.ar    1  UNL1       -0.1288
     25 N         133.9577  140.5683  154.5595 N.ar    1  UNL1       -0.1258
     26 C         133.9586  139.6670  155.7585 C.ar    1  UNL1        0.1992
     27 N         135.1103  140.0621  156.6345 N.ar    1  UNL1       -0.3187
     28 H         135.3564  139.6432  157.4908 H       1  UNL1        0.1690
     29 C         139.3521  144.9992  155.5808 C.ar    1  UNL1        0.0038
     30 C         138.6546  146.3245  155.6653 C.ar    1  UNL1        0.0207
     31 C         139.2094  147.5119  154.9357 C.ar    1  UNL1        0.0996
     32 N         140.4617  147.3740  154.1217 N.ar    1  UNL1       -0.2335
     33 C         141.1592  146.0488  154.0372 C.ar    1  UNL1        0.1492
     34 C         140.6044  144.8613  154.7668 C.ar    1  UNL1        0.0297
     35 C         142.4115  145.9109  153.2232 C.1     1  UNL1        0.1198
     36 N         143.6639  145.7730  152.4091 N.1     1  UNL1       -0.1893
@<TRIPOS>BOND
     1     1     2    1
     2     2     3   ar
     3     3     4   ar
     4     4     5   ar
     5     5    23    1
     6    23    24   ar
     7    24    25   ar
     8    25    26   ar
     9    26    27   ar
    10     5     6   ar
    11     6     7   ar
    12     7    29    1
    13    29    30   ar
    14    30    31   ar
    15    31    32   ar
    16    32    33   ar
    17    33    35    1
    18    35    36    3
    19    33    34   ar
    20     7     8   ar
    21     8     9   ar
    22     9    10   ar
    23    10    11    1
    24    11    12   ar
    25    12    13   ar
    26    13    14   ar
    27    14    15   ar
    28    15    16   ar
    29    16    17    1
    30    16    18   ar
    31    18    19   ar
    32    19    20   ar
    33    20    21    1
    34    20    22   ar
    35    10     2   ar
    36    22    11   ar
    37     9     4   ar
    38    22    15   ar
    39    27    23   ar
    40    34    29   ar
    41    27    28    1
@<TRIPOS>MOLECULE
*****
 36 41 0 0 0
SMALL
GASTEIGER

@<TRIPOS>ATOM
      1 C         140.3304  145.8168  162.4715 C.3     1  UNL1        0.0722
      2 C         140.2923  144.9794  161.2276 C.ar    1  UNL1        0.1246
      3 N         139.9620  145.4652  159.8475 N.ar    1  UNL1       -0.2305
      4 C         140.0434  144.2951  158.9123 C.ar    1  UNL1        0.1015
      5 C         139.8201  144.1744  157.4341 C.ar    1  UNL1        0.0548
      6 C         139.9775  142.8446  156.7579 C.ar    1  UNL1        0.0046
      7 C         140.3582  141.6357  157.5601 C.ar    1  UNL1        0.0018
      8 C         140.5815  141.7566  159.0385 C.ar    1  UNL1        0.0191
      9 C         140.4241  143.0863  159.7146 C.ar    1  UNL1        0.0827
     10 N         140.5779  143.5091  161.1455 N.ar    1  UNL1       -0.2935
     11 C         140.9517  142.6181  162.2929 C.ar    1  UNL1        0.0703
     12 C         139.8909  142.1071  163.2222 C.ar    1  UNL1        0.0383
     13 C         140.2647  141.2161  164.3695 C.ar    1  UNL1        0.1004
     14 N         141.6992  140.8362  164.5876 N.ar    1  UNL1       -0.2414
     15 C         142.7600  141.3472  163.6583 C.ar    1  UNL1        0.1122
     16 C         144.1947  140.9671  163.8764 C.ar    1  UNL1        0.1578
     17 F         144.5684  140.0762  165.0238 F       1  UNL1       -0.2026
     18 C         145.2555  141.4781  162.9472 C.ar    1  UNL1        0.0335
     19 C         144.8817  142.3692  161.7998 C.ar    1  UNL1        0.0321
     20 C         143.4471  142.7491  161.5817 C.ar    1  UNL1        0.1431
     21 F         143.4344  143.5437  160.4904 F       1  UNL1       -0.2041
     22 C         142.3863  142.2381  162.5110 C.ar    1  UNL1        0.0635
     23 C         139.4395  145.3832  156.6318 C.ar    1  UNL1        0.1647
     24 N         138.5138  145.4026  155.4517 N.ar    1  UNL1       -0.1288
     25 N         138.4199  146.8164  154.9593 N.ar    1  UNL1       -0.1258
     26 C         139.2875  147.6708  155.8352 C.ar    1  UNL1        0.1992
     27 N         139.9176  146.7852  156.8688 N.ar    1  UNL1       -0.3187
     28 H         140.5364  147.0733  157.5782 H       1  UNL1        0.1690
     29 C         140.5155  140.3060  156.8841 C.ar    1  UNL1        0.0038
     30 C         139.3035  139.5449  156.4348 C.ar    1  UNL1        0.0207
     31 C         139.4609  138.2152  155.7588 C.ar    1  UNL1        0.0996
     32 N         140.8303  137.6466  155.5319 N.ar    1  UNL1       -0.2335
     33 C         142.0422  138.4077  155.9810 C.ar    1  UNL1        0.1492
     34 C         141.8849  139.7375  156.6572 C.ar    1  UNL1        0.0297
     35 C         143.4116  137.8391  155.7541 C.1     1  UNL1        0.1198
     36 N         144.7811  137.2705  155.5272 N.1     1  UNL1       -0.1893
@<TRIPOS>BOND
     1     1     2    1
     2     2     3   ar
     3     3     4   ar
     4     4     5   ar
     5     5    23    1
     6    23    24   ar
     7    24    25   ar
     8    25    26   ar
     9    26    27   ar
    10     5     6   ar
    11     6     7   ar
    12     7    29    1
    13    29    30   ar
    14    30    31   ar
    15    31    32   ar
    16    32    33   ar
    17    33    35    1
    18    35    36    3
    19    33    34   ar
    20     7     8   ar
    21     8     9   ar
    22     9    10   ar
    23    10    11    1
    24    11    12   ar
    25    12    13   ar
    26    13    14   ar
    27    14    15   ar
    28    15    16   ar
    29    16    17    1
    30    16    18   ar
    31    18    19   ar
    32    19    20   ar
    33    20    21    1
    34    20    22   ar
    35    10     2   ar
    36    22    11   ar
    37     9     4   ar
    38    22    15   ar
    39    27    23   ar
    40    34    29   ar
    41    27    28    1
