@<TRIPOS>MOLECULE
*****
 29 31 0 0 0
SMALL
GASTEIGER

@<TRIPOS>ATOM
      1 N         140.8759  144.4334  158.3286 N.am    1  UNL1       -0.2681
      2 C         140.7050  144.9371  159.7311 C.2     1  UNL1        0.3077
      3 O         139.6188  145.9221  160.0471 O.2     1  UNL1       -0.2522
      4 N         141.6204  144.4558  160.8176 N.am    1  UNL1       -0.2637
      5 C         141.4495  144.9594  162.2201 C.3     1  UNL1        0.0987
      6 C         142.3648  144.4781  163.3066 C.3     1  UNL1        0.0651
      7 C         143.4510  143.4931  162.9905 C.3     1  UNL1        0.1694
      8 C         143.6219  142.9894  161.5880 C.3     1  UNL1        0.0651
      9 C         142.7066  143.4708  160.5016 C.3     1  UNL1        0.0987
     10 H         141.5888  143.7869  158.1211 H       1  UNL1        0.1564
     11 C         139.0546  146.8408  155.7522 C.ar    1  UNL1        0.0546
     12 C         138.1299  145.8774  155.0691 C.ar    1  UNL1        0.0046
     13 C         138.1205  144.4327  155.4724 C.ar    1  UNL1        0.0014
     14 C         139.0358  143.9514  156.5589 C.ar    1  UNL1        0.0147
     15 C         139.9605  144.9147  157.2420 C.ar    1  UNL1        0.0517
     16 C         139.9699  146.3595  156.8387 C.ar    1  UNL1        0.0192
     17 C         138.5127  150.7705  155.8693 C.3     1  UNL1        0.1109
     18 N         138.5032  149.3258  156.2726 N.am    1  UNL1       -0.2992
     19 C         139.0640  148.2855  155.3489 C.2     1  UNL1        0.2459
     20 O         139.6343  148.6900  154.0218 O.2     1  UNL1       -0.2701
     21 H         138.1290  149.0603  157.1436 H       1  UNL1        0.1498
     22 O         144.3664  143.0118  164.0771 O.3     1  UNL1       -0.4782
     23 C         144.2410  141.6106  164.5974 C.ar    1  UNL1        0.1488
     24 C         145.0935  140.5181  164.0230 C.ar    1  UNL1        0.0378
     25 C         144.9681  139.1169  164.5433 C.ar    1  UNL1        0.0032
     26 C         143.9902  138.8080  165.6381 C.ar    1  UNL1        0.0011
     27 C         143.1378  139.9005  166.2125 C.ar    1  UNL1        0.0145
     28 C         143.2632  141.3018  165.6921 C.ar    1  UNL1        0.0915
     29 CL        142.4107  142.3942  166.2665 Cl      1  UNL1       -0.0791
@<TRIPOS>BOND
     1    17    18    1
     2    18    19   am
     3    19    20    2
     4    19    11    1
     5    11    12   ar
     6    12    13   ar
     7    13    14   ar
     8    14    15   ar
     9    15     1    1
    10     1     2   am
    11     2     3    2
    12     2     4   am
    13     4     5    1
    14     5     6    1
    15     6     7    1
    16     7    22    1
    17    22    23    1
    18    23    24   ar
    19    24    25   ar
    20    25    26   ar
    21    26    27   ar
    22    27    28   ar
    23    28    29    1
    24     7     8    1
    25     8     9    1
    26    15    16   ar
    27    16    11   ar
    28     9     4    1
    29    28    23   ar
    30    18    21    1
    31     1    10    1
@<TRIPOS>MOLECULE
*****
 29 31 0 0 0
SMALL
GASTEIGER

@<TRIPOS>ATOM
      1 N         140.0743  141.3153  164.3906 N.am    1  UNL1       -0.2681
      2 C         139.5169  142.6466  163.9821 C.2     1  UNL1        0.3077
      3 O         138.3638  143.2401  164.7358 O.2     1  UNL1       -0.2522
      4 N         140.1127  143.3845  162.8198 N.am    1  UNL1       -0.2637
      5 C         139.5553  144.7158  162.4113 C.3     1  UNL1        0.0987
      6 C         140.1510  145.4536  161.2491 C.3     1  UNL1        0.0651
      7 C         141.3041  144.8601  160.4955 C.3     1  UNL1        0.1694
      8 C         141.8615  143.5288  160.9040 C.3     1  UNL1        0.0651
      9 C         141.2658  142.7910  162.0661 C.3     1  UNL1        0.0987
     10 H         140.8312  140.9258  163.8959 H       1  UNL1        0.1564
     11 C         139.3566  140.1280  168.1088 C.ar    1  UNL1        0.0546
     12 C         138.2873  139.1019  167.8773 C.ar    1  UNL1        0.0046
     13 C         137.8136  138.8136  166.4835 C.ar    1  UNL1        0.0014
     14 C         138.4093  139.5514  165.3213 C.ar    1  UNL1        0.0147
     15 C         139.4786  140.5775  165.5528 C.ar    1  UNL1        0.0517
     16 C         139.9522  140.8658  166.9466 C.ar    1  UNL1        0.0192
     17 C         141.5239  141.5495  171.1141 C.3     1  UNL1        0.1109
     18 N         141.0503  141.2612  169.7203 N.am    1  UNL1       -0.2992
     19 C         139.8302  140.4163  169.5026 C.2     1  UNL1        0.2459
     20 O         139.0838  139.8597  170.6785 O.2     1  UNL1       -0.2701
     21 H         141.5402  141.6265  168.9485 H       1  UNL1        0.1498
     22 O         141.8999  145.5979  159.3332 O.3     1  UNL1       -0.4782
     23 C         141.3623  145.3782  157.9502 C.ar    1  UNL1        0.1488
     24 C         140.1901  146.1785  157.4652 C.ar    1  UNL1        0.0378
     25 C         139.6526  145.9588  156.0822 C.ar    1  UNL1        0.0032
     26 C         140.2873  144.9386  155.1841 C.ar    1  UNL1        0.0011
     27 C         141.4596  144.1382  155.6691 C.ar    1  UNL1        0.0145
     28 C         141.9971  144.3580  157.0522 C.ar    1  UNL1        0.0915
     29 CL        143.1693  143.5577  157.5373 Cl      1  UNL1       -0.0791
@<TRIPOS>BOND
     1    17    18    1
     2    18    19   am
     3    19    20    2
     4    19    11    1
     5    11    12   ar
     6    12    13   ar
     7    13    14   ar
     8    14    15   ar
     9    15     1    1
    10     1     2   am
    11     2     3    2
    12     2     4   am
    13     4     5    1
    14     5     6    1
    15     6     7    1
    16     7    22    1
    17    22    23    1
    18    23    24   ar
    19    24    25   ar
    20    25    26   ar
    21    26    27   ar
    22    27    28   ar
    23    28    29    1
    24     7     8    1
    25     8     9    1
    26    15    16   ar
    27    16    11   ar
    28     9     4    1
    29    28    23   ar
    30    18    21    1
    31     1    10    1
@<TRIPOS>MOLECULE
*****
 29 31 0 0 0
SMALL
GASTEIGER

@<TRIPOS>ATOM
      1 N         142.1630  138.1656  158.8628 N.am    1  UNL1       -0.2681
      2 C         140.6903  138.4439  158.9228 C.2     1  UNL1        0.3077
      3 O         139.7994  138.0152  157.7946 O.2     1  UNL1       -0.2522
      4 N         140.1083  139.1508  160.1109 N.am    1  UNL1       -0.2637
      5 C         138.6356  139.4290  160.1709 C.3     1  UNL1        0.0987
      6 C         138.0537  140.1359  161.3590 C.3     1  UNL1        0.0651
      7 C         138.9445  140.5645  162.4872 C.3     1  UNL1        0.1694
      8 C         140.4172  140.2863  162.4272 C.3     1  UNL1        0.0651
      9 C         140.9991  139.5794  161.2391 C.3     1  UNL1        0.0987
     10 H         142.7476  138.4470  159.6032 H       1  UNL1        0.1564
     11 C         143.4214  135.2548  156.4767 C.ar    1  UNL1        0.0546
     12 C         143.9088  136.0449  155.2985 C.ar    1  UNL1        0.0046
     13 C         143.8143  137.5419  155.3084 C.ar    1  UNL1        0.0014
     14 C         143.2324  138.2488  156.4964 C.ar    1  UNL1        0.0147
     15 C         142.7450  137.4587  157.6746 C.ar    1  UNL1        0.0517
     16 C         142.8395  135.9617  157.6647 C.ar    1  UNL1        0.0192
     17 C         144.9500  131.5947  156.3477 C.3     1  UNL1        0.1109
     18 N         144.8554  133.0916  156.3576 N.am    1  UNL1       -0.2992
     19 C         143.5160  133.7578  156.4668 C.2     1  UNL1        0.2459
     20 O         142.2710  132.9271  156.5661 O.2     1  UNL1       -0.2701
     21 H         145.6725  133.6369  156.2924 H       1  UNL1        0.1498
     22 O         138.3625  141.2715  163.6753 O.3     1  UNL1       -0.4782
     23 C         138.7077  140.8161  165.0622 C.ar    1  UNL1        0.1488
     24 C         138.1077  139.5546  165.6086 C.ar    1  UNL1        0.0378
     25 C         138.4529  139.0993  166.9954 C.ar    1  UNL1        0.0032
     26 C         139.3982  139.9055  167.8360 C.ar    1  UNL1        0.0011
     27 C         139.9983  141.1670  167.2896 C.ar    1  UNL1        0.0145
     28 C         139.6530  141.6223  165.9027 C.ar    1  UNL1        0.0915
     29 CL        140.2531  142.8838  165.3563 Cl      1  UNL1       -0.0791
@<TRIPOS>BOND
     1    17    18    1
     2    18    19   am
     3    19    20    2
     4    19    11    1
     5    11    12   ar
     6    12    13   ar
     7    13    14   ar
     8    14    15   ar
     9    15     1    1
    10     1     2   am
    11     2     3    2
    12     2     4   am
    13     4     5    1
    14     5     6    1
    15     6     7    1
    16     7    22    1
    17    22    23    1
    18    23    24   ar
    19    24    25   ar
    20    25    26   ar
    21    26    27   ar
    22    27    28   ar
    23    28    29    1
    24     7     8    1
    25     8     9    1
    26    15    16   ar
    27    16    11   ar
    28     9     4    1
    29    28    23   ar
    30    18    21    1
    31     1    10    1
@<TRIPOS>MOLECULE
*****
 29 31 0 0 0
SMALL
GASTEIGER

@<TRIPOS>ATOM
      1 N         140.1023  139.9155  161.7472 N.am    1  UNL1       -0.2681
      2 C         139.1723  139.2149  162.6928 C.2     1  UNL1        0.3077
      3 O         138.1067  138.3038  162.1594 O.2     1  UNL1       -0.2522
      4 N         139.3079  139.4253  164.1718 N.am    1  UNL1       -0.2637
      5 C         138.3780  138.7246  165.1174 C.3     1  UNL1        0.0987
      6 C         138.5136  138.9350  166.5963 C.3     1  UNL1        0.0651
      7 C         139.5792  139.8461  167.1296 C.3     1  UNL1        0.1694
      8 C         140.5092  140.5467  166.1840 C.3     1  UNL1        0.0651
      9 C         140.3735  140.3363  164.7051 C.3     1  UNL1        0.0987
     10 H         140.8017  140.5135  162.0972 H       1  UNL1        0.1564
     11 C         140.7286  138.5209  158.0848 C.ar    1  UNL1        0.0546
     12 C         139.6955  139.2843  157.3103 C.ar    1  UNL1        0.0046
     13 C         138.7979  140.2581  158.0147 C.ar    1  UNL1        0.0014
     14 C         138.9335  140.4685  159.4936 C.ar    1  UNL1        0.0147
     15 C         139.9666  139.7051  160.2681 C.ar    1  UNL1        0.0517
     16 C         140.8642  138.7313  159.5637 C.ar    1  UNL1        0.0192
     17 C         141.9348  135.5185  155.7868 C.3     1  UNL1        0.1109
     18 N         141.0373  136.4923  156.4913 N.am    1  UNL1       -0.2992
     19 C         141.6261  137.5471  157.3804 C.2     1  UNL1        0.2459
     20 O         143.1124  137.6282  157.5651 O.2     1  UNL1       -0.2701
     21 H         140.0617  136.4391  156.3700 H       1  UNL1        0.1498
     22 O         139.7149  140.0565  168.6087 O.3     1  UNL1       -0.4782
     23 C         140.7227  141.0332  169.1379 C.ar    1  UNL1        0.1488
     24 C         140.3239  142.4557  169.3977 C.ar    1  UNL1        0.0378
     25 C         141.3318  143.4325  169.9270 C.ar    1  UNL1        0.0032
     26 C         142.7385  142.9867  170.1966 C.ar    1  UNL1        0.0011
     27 C         143.1372  141.5643  169.9368 C.ar    1  UNL1        0.0145
     28 C         142.1293  140.5875  169.4075 C.ar    1  UNL1        0.0915
     29 CL        142.5281  139.1650  169.1477 Cl      1  UNL1       -0.0791
@<TRIPOS>BOND
     1    17    18    1
     2    18    19   am
     3    19    20    2
     4    19    11    1
     5    11    12   ar
     6    12    13   ar
     7    13    14   ar
     8    14    15   ar
     9    15     1    1
    10     1     2   am
    11     2     3    2
    12     2     4   am
    13     4     5    1
    14     5     6    1
    15     6     7    1
    16     7    22    1
    17    22    23    1
    18    23    24   ar
    19    24    25   ar
    20    25    26   ar
    21    26    27   ar
    22    27    28   ar
    23    28    29    1
    24     7     8    1
    25     8     9    1
    26    15    16   ar
    27    16    11   ar
    28     9     4    1
    29    28    23   ar
    30    18    21    1
    31     1    10    1
@<TRIPOS>MOLECULE
*****
 29 31 0 0 0
SMALL
GASTEIGER

@<TRIPOS>ATOM
      1 N         141.7385  138.1958  158.4931 N.am    1  UNL1       -0.2681
      2 C         142.3296  138.4985  159.8381 C.2     1  UNL1        0.3077
      3 O         143.7356  138.0796  160.1509 O.2     1  UNL1       -0.2522
      4 N         141.5148  139.2200  160.8703 N.am    1  UNL1       -0.2637
      5 C         142.1059  139.5226  162.2153 C.3     1  UNL1        0.0987
      6 C         141.2910  140.2441  163.2475 C.3     1  UNL1        0.0651
      7 C         139.8850  140.6630  162.9347 C.3     1  UNL1        0.1694
      8 C         139.2939  140.3603  161.5897 C.3     1  UNL1        0.0651
      9 C         140.1088  139.6388  160.5575 C.3     1  UNL1        0.0987
     10 H         140.8157  138.4707  158.2879 H       1  UNL1        0.1564
     11 C         143.4524  135.2553  156.4520 C.ar    1  UNL1        0.0546
     12 C         144.1830  136.0312  155.3965 C.ar    1  UNL1        0.0046
     13 C         144.0989  137.5287  155.3733 C.ar    1  UNL1        0.0014
     14 C         143.2841  138.2502  156.4054 C.ar    1  UNL1        0.0147
     15 C         142.5534  137.4743  157.4609 C.ar    1  UNL1        0.0517
     16 C         142.6376  135.9768  157.4842 C.ar    1  UNL1        0.0192
     17 C         144.9497  131.5815  156.3474 C.3     1  UNL1        0.1109
     18 N         144.8655  133.0789  156.3242 N.am    1  UNL1       -0.2992
     19 C         143.5366  133.7579  156.4753 C.2     1  UNL1        0.2459
     20 O         142.2918  132.9393  156.6497 O.2     1  UNL1       -0.2701
     21 H         145.6825  133.6162  156.2097 H       1  UNL1        0.1498
     22 O         139.0702  141.3845  163.9669 O.3     1  UNL1       -0.4782
     23 C         139.4738  141.3340  165.4107 C.ar    1  UNL1        0.1488
     24 C         140.2481  142.4688  166.0131 C.ar    1  UNL1        0.0378
     25 C         140.6517  142.4183  167.4568 C.ar    1  UNL1        0.0032
     26 C         140.2810  141.2331  168.2983 C.ar    1  UNL1        0.0011
     27 C         139.5067  140.0984  167.6959 C.ar    1  UNL1        0.0145
     28 C         139.1031  140.1489  166.2520 C.ar    1  UNL1        0.0915
     29 CL        138.3288  139.0141  165.6496 Cl      1  UNL1       -0.0791
@<TRIPOS>BOND
     1    17    18    1
     2    18    19   am
     3    19    20    2
     4    19    11    1
     5    11    12   ar
     6    12    13   ar
     7    13    14   ar
     8    14    15   ar
     9    15     1    1
    10     1     2   am
    11     2     3    2
    12     2     4   am
    13     4     5    1
    14     5     6    1
    15     6     7    1
    16     7    22    1
    17    22    23    1
    18    23    24   ar
    19    24    25   ar
    20    25    26   ar
    21    26    27   ar
    22    27    28   ar
    23    28    29    1
    24     7     8    1
    25     8     9    1
    26    15    16   ar
    27    16    11   ar
    28     9     4    1
    29    28    23   ar
    30    18    21    1
    31     1    10    1
@<TRIPOS>MOLECULE
*****
 29 31 0 0 0
SMALL
GASTEIGER

@<TRIPOS>ATOM
      1 N         140.6790  138.4523  163.8785 N.am    1  UNL1       -0.2681
      2 C         140.1273  138.8486  162.5412 C.2     1  UNL1        0.3077
      3 O         138.8114  139.5635  162.4548 O.2     1  UNL1       -0.2522
      4 N         140.8914  138.5301  161.2903 N.am    1  UNL1       -0.2637
      5 C         140.3396  138.9265  159.9530 C.3     1  UNL1        0.0987
      6 C         141.1037  138.6079  158.7022 C.3     1  UNL1        0.0651
      7 C         142.4196  137.8930  158.7886 C.3     1  UNL1        0.1694
      8 C         142.9713  137.4967  160.1259 C.3     1  UNL1        0.0651
      9 C         142.2072  137.8152  161.3768 C.3     1  UNL1        0.0987
     10 H         141.5426  137.9830  163.9353 H       1  UNL1        0.1564
     11 C         139.6401  140.1646  167.3047 C.ar    1  UNL1        0.0546
     12 C         138.3868  139.4079  167.6312 C.ar    1  UNL1        0.0046
     13 C         137.8976  138.3326  166.7069 C.ar    1  UNL1        0.0014
     14 C         138.6617  138.0140  165.4560 C.ar    1  UNL1        0.0147
     15 C         139.9149  138.7708  165.1295 C.ar    1  UNL1        0.0517
     16 C         140.4041  139.8461  166.0538 C.ar    1  UNL1        0.0192
     17 C         140.2161  142.3024  170.5983 C.3     1  UNL1        0.1109
     18 N         139.7269  141.2271  169.6740 N.am    1  UNL1       -0.2992
     19 C         140.1293  141.2400  168.2290 C.2     1  UNL1        0.2459
     20 O         141.0208  142.3281  167.7084 O.2     1  UNL1       -0.2701
     21 H         139.1418  140.5129  170.0157 H       1  UNL1        0.1498
     22 O         143.1837  137.5745  157.5377 O.3     1  UNL1       -0.4782
     23 C         142.8013  136.3851  156.7076 C.ar    1  UNL1        0.1488
     24 C         143.2921  135.0186  157.0842 C.ar    1  UNL1        0.0378
     25 C         142.9097  133.8292  156.2541 C.ar    1  UNL1        0.0032
     26 C         142.0364  134.0063  155.0474 C.ar    1  UNL1        0.0011
     27 C         141.5456  135.3728  154.6708 C.ar    1  UNL1        0.0145
     28 C         141.9280  136.5622  155.5010 C.ar    1  UNL1        0.0915
     29 CL        141.4372  137.9287  155.1244 Cl      1  UNL1       -0.0791
@<TRIPOS>BOND
     1    17    18    1
     2    18    19   am
     3    19    20    2
     4    19    11    1
     5    11    12   ar
     6    12    13   ar
     7    13    14   ar
     8    14    15   ar
     9    15     1    1
    10     1     2   am
    11     2     3    2
    12     2     4   am
    13     4     5    1
    14     5     6    1
    15     6     7    1
    16     7    22    1
    17    22    23    1
    18    23    24   ar
    19    24    25   ar
    20    25    26   ar
    21    26    27   ar
    22    27    28   ar
    23    28    29    1
    24     7     8    1
    25     8     9    1
    26    15    16   ar
    27    16    11   ar
    28     9     4    1
    29    28    23   ar
    30    18    21    1
    31     1    10    1
@<TRIPOS>MOLECULE
*****
 29 31 0 0 0
SMALL
GASTEIGER

@<TRIPOS>ATOM
      1 N         143.3104  138.9868  161.2875 N.am    1  UNL1       -0.2681
      2 C         142.1279  139.4947  162.0581 C.2     1  UNL1        0.3077
      3 O         140.9113  139.9832  161.3292 O.2     1  UNL1       -0.2522
      4 N         142.1620  139.5140  163.5576 N.am    1  UNL1       -0.2637
      5 C         140.9795  140.0218  164.3282 C.3     1  UNL1        0.0987
      6 C         141.0136  140.0411  165.8276 C.3     1  UNL1        0.0651
      7 C         142.2301  139.5525  166.5565 C.3     1  UNL1        0.1694
      8 C         143.4126  139.0447  165.7860 C.3     1  UNL1        0.0651
      9 C         143.3785  139.0254  164.2865 C.3     1  UNL1        0.0987
     10 H         144.1089  138.6662  161.7659 H       1  UNL1        0.1564
     11 C         142.7157  137.7439  157.5658 C.ar    1  UNL1        0.0546
     12 C         143.2082  138.9288  156.7891 C.ar    1  UNL1        0.0046
     13 C         143.7349  140.1331  157.5118 C.ar    1  UNL1        0.0014
     14 C         143.7689  140.1524  159.0113 C.ar    1  UNL1        0.0147
     15 C         143.2764  138.9675  159.7880 C.ar    1  UNL1        0.0517
     16 C         142.7497  137.7633  159.0652 C.ar    1  UNL1        0.0192
     17 C         142.4635  134.0676  156.0924 C.3     1  UNL1        0.1109
     18 N         142.9902  135.2718  156.8151 N.am    1  UNL1       -0.2992
     19 C         142.1890  136.5396  156.8430 C.2     1  UNL1        0.2459
     20 O         140.8613  136.6032  156.1481 O.2     1  UNL1       -0.2701
     21 H         143.8617  135.2301  157.2713 H       1  UNL1        0.1498
     22 O         142.2642  139.5718  168.0561 O.3     1  UNL1       -0.4782
     23 C         141.4615  140.5892  168.8115 C.ar    1  UNL1        0.1488
     24 C         140.1310  140.2133  169.3932 C.ar    1  UNL1        0.0378
     25 C         139.3283  141.2306  170.1486 C.ar    1  UNL1        0.0032
     26 C         139.8560  142.6240  170.3222 C.ar    1  UNL1        0.0011
     27 C         141.1865  142.9999  169.7405 C.ar    1  UNL1        0.0145
     28 C         141.9893  141.9825  168.9851 C.ar    1  UNL1        0.0915
     29 CL        143.3198  142.3584  168.4033 Cl      1  UNL1       -0.0791
@<TRIPOS>BOND
     1    17    18    1
     2    18    19   am
     3    19    20    2
     4    19    11    1
     5    11    12   ar
     6    12    13   ar
     7    13    14   ar
     8    14    15   ar
     9    15     1    1
    10     1     2   am
    11     2     3    2
    12     2     4   am
    13     4     5    1
    14     5     6    1
    15     6     7    1
    16     7    22    1
    17    22    23    1
    18    23    24   ar
    19    24    25   ar
    20    25    26   ar
    21    26    27   ar
    22    27    28   ar
    23    28    29    1
    24     7     8    1
    25     8     9    1
    26    15    16   ar
    27    16    11   ar
    28     9     4    1
    29    28    23   ar
    30    18    21    1
    31     1    10    1
@<TRIPOS>MOLECULE
*****
 29 31 0 0 0
SMALL
GASTEIGER

@<TRIPOS>ATOM
      1 N         144.3569  141.6135  158.8027 N.am    1  UNL1       -0.2681
      2 C         143.8927  140.2063  159.0358 C.2     1  UNL1        0.3077
      3 O         143.7376  139.2661  157.8774 O.2     1  UNL1       -0.2522
      4 N         143.5836  139.7393  160.4274 N.am    1  UNL1       -0.2637
      5 C         143.1194  138.3322  160.6605 C.3     1  UNL1        0.0987
      6 C         142.8103  137.8653  162.0521 C.3     1  UNL1        0.0651
      7 C         142.9654  138.8055  163.2105 C.3     1  UNL1        0.1694
      8 C         143.4295  140.2127  162.9774 C.3     1  UNL1        0.0651
      9 C         143.7386  140.6796  161.5858 C.3     1  UNL1        0.0987
     10 H         144.4587  142.2306  159.5630 H       1  UNL1        0.1564
     11 C         146.3856  142.5062  155.5107 C.ar    1  UNL1        0.0546
     12 C         145.2843  143.0144  154.6281 C.ar    1  UNL1        0.0046
     13 C         143.8739  143.0556  155.1371 C.ar    1  UNL1        0.0014
     14 C         143.5648  142.5886  156.5286 C.ar    1  UNL1        0.0147
     15 C         144.6660  142.0805  157.4111 C.ar    1  UNL1        0.0517
     16 C         146.0764  142.0393  156.9022 C.ar    1  UNL1        0.0192
     17 C         150.2216  141.5489  155.1665 C.3     1  UNL1        0.1109
     18 N         148.8112  141.5901  155.6754 N.am    1  UNL1       -0.2992
     19 C         147.7960  142.4650  155.0018 C.2     1  UNL1        0.2459
     20 O         148.1913  143.2988  153.8192 O.2     1  UNL1       -0.2701
     21 H         148.5518  141.0428  156.4516 H       1  UNL1        0.1498
     22 O         142.6562  138.3385  164.6021 O.3     1  UNL1       -0.4782
     23 C         141.2694  138.4899  165.1533 C.ar    1  UNL1        0.1488
     24 C         140.1771  137.5676  164.6993 C.ar    1  UNL1        0.0378
     25 C         138.7903  137.7190  165.2505 C.ar    1  UNL1        0.0032
     26 C         138.4958  138.7928  166.2557 C.ar    1  UNL1        0.0011
     27 C         139.5882  139.7151  166.7097 C.ar    1  UNL1        0.0145
     28 C         140.9750  139.5637  166.1584 C.ar    1  UNL1        0.0915
     29 CL        142.0674  140.4860  166.6123 Cl      1  UNL1       -0.0791
@<TRIPOS>BOND
     1    17    18    1
     2    18    19   am
     3    19    20    2
     4    19    11    1
     5    11    12   ar
     6    12    13   ar
     7    13    14   ar
     8    14    15   ar
     9    15     1    1
    10     1     2   am
    11     2     3    2
    12     2     4   am
    13     4     5    1
    14     5     6    1
    15     6     7    1
    16     7    22    1
    17    22    23    1
    18    23    24   ar
    19    24    25   ar
    20    25    26   ar
    21    26    27   ar
    22    27    28   ar
    23    28    29    1
    24     7     8    1
    25     8     9    1
    26    15    16   ar
    27    16    11   ar
    28     9     4    1
    29    28    23   ar
    30    18    21    1
    31     1    10    1
@<TRIPOS>MOLECULE
*****
 29 31 0 0 0
SMALL
GASTEIGER

@<TRIPOS>ATOM
      1 N         142.2599  138.4063  157.5739 N.am    1  UNL1       -0.2681
      2 C         143.3114  139.4740  157.5082 C.2     1  UNL1        0.3077
      3 O         144.4627  139.3354  156.5567 O.2     1  UNL1       -0.2522
      4 N         143.2116  140.6805  158.3940 N.am    1  UNL1       -0.2637
      5 C         144.2630  141.7483  158.3282 C.3     1  UNL1        0.0987
      6 C         144.1632  142.9547  159.2139 C.3     1  UNL1        0.0651
      7 C         143.0119  143.0933  160.1654 C.3     1  UNL1        0.1694
      8 C         141.9604  142.0256  160.2312 C.3     1  UNL1        0.0651
      9 C         142.0603  140.8192  159.3454 C.3     1  UNL1        0.0987
     10 H         141.5043  138.4973  158.1984 H       1  UNL1        0.1564
     11 C         142.9345  134.6867  156.3657 C.ar    1  UNL1        0.0546
     12 C         142.5594  134.7869  154.9168 C.ar    1  UNL1        0.0046
     13 C         142.0844  136.0935  154.3537 C.ar    1  UNL1        0.0014
     14 C         141.9846  137.3000  155.2393 C.ar    1  UNL1        0.0147
     15 C         142.3597  137.1998  156.6882 C.ar    1  UNL1        0.0517
     16 C         142.8347  135.8932  157.2513 C.ar    1  UNL1        0.0192
     17 C         145.3030  131.9287  157.9572 C.3     1  UNL1        0.1109
     18 N         144.8281  133.2353  157.3941 N.am    1  UNL1       -0.2992
     19 C         143.4094  133.3801  156.9288 C.2     1  UNL1        0.2459
     20 O         142.4658  132.2183  157.0268 O.2     1  UNL1       -0.2701
     21 H         145.4475  133.9978  157.3298 H       1  UNL1        0.1498
     22 O         142.9121  144.2998  161.0512 O.3     1  UNL1       -0.4782
     23 C         141.7530  144.4457  161.9920 C.ar    1  UNL1        0.1488
     24 C         141.8713  143.9652  163.4080 C.ar    1  UNL1        0.0378
     25 C         140.7123  144.1110  164.3489 C.ar    1  UNL1        0.0032
     26 C         139.4348  144.7375  163.8737 C.ar    1  UNL1        0.0011
     27 C         139.3164  145.2180  162.4577 C.ar    1  UNL1        0.0145
     28 C         140.4756  145.0721  161.5169 C.ar    1  UNL1        0.0915
     29 CL        140.3573  145.5526  160.1008 Cl      1  UNL1       -0.0791
@<TRIPOS>BOND
     1    17    18    1
     2    18    19   am
     3    19    20    2
     4    19    11    1
     5    11    12   ar
     6    12    13   ar
     7    13    14   ar
     8    14    15   ar
     9    15     1    1
    10     1     2   am
    11     2     3    2
    12     2     4   am
    13     4     5    1
    14     5     6    1
    15     6     7    1
    16     7    22    1
    17    22    23    1
    18    23    24   ar
    19    24    25   ar
    20    25    26   ar
    21    26    27   ar
    22    27    28   ar
    23    28    29    1
    24     7     8    1
    25     8     9    1
    26    15    16   ar
    27    16    11   ar
    28     9     4    1
    29    28    23   ar
    30    18    21    1
    31     1    10    1
