@<TRIPOS>MOLECULE
*****
 35 39 0 0 0
SMALL
GASTEIGER

@<TRIPOS>ATOM
      1 N         143.0776  144.1796  161.3633 N.3     1  UNL1       -0.2985
      2 H         142.8538  144.9448  161.9995 H       1  UNL1        0.1232
      3 C         143.7037  143.0970  162.1917 C.3     1  UNL1        0.0543
      4 C         144.9904  142.3880  161.8892 C.3     1  UNL1        0.0160
      5 C         145.2349  141.3861  162.9785 C.3     1  UNL1        0.0055
      6 C         145.2092  140.4935  164.1837 C.3     1  UNL1        0.0045
      7 C         144.0992  141.4760  163.9542 C.3     1  UNL1        0.0224
      8 C         143.1529  142.5334  163.4680 C.3     1  UNL1        0.0198
      9 C         143.3163  141.1178  165.1825 C.ar    1  UNL1        0.0047
     10 C         142.4589  139.8870  165.1930 C.ar    1  UNL1       -0.0021
     11 C         141.6759  139.5288  166.4213 C.ar    1  UNL1        0.0037
     12 C         141.7505  140.4013  167.6392 C.ar    1  UNL1        0.0736
     13 C         142.6080  141.6320  167.6287 C.ar    1  UNL1        0.0332
     14 C         143.3909  141.9902  166.4004 C.ar    1  UNL1        0.1361
     15 F         144.2484  143.2210  166.3900 F       1  UNL1       -0.2045
     16 C         140.9677  140.0430  168.8675 C.3     1  UNL1        0.4186
     17 F         140.1848  139.6848  170.0958 F       1  UNL1       -0.1659
     18 F         139.6966  140.4256  168.1690 F       1  UNL1       -0.1659
     19 F         142.2387  139.6604  169.5661 F       1  UNL1       -0.1659
     20 C         141.8346  143.8955  160.5734 C.3     1  UNL1        0.0694
     21 C         140.6366  144.7872  160.7137 C.3     1  UNL1        0.0292
     22 C         140.2974  145.3833  162.0478 C.3     1  UNL1        0.0666
     23 S         139.0104  145.0189  162.7266 S.3     1  UNL1       -0.0756
     24 C         138.2761  141.2792  163.4615 C.ar    1  UNL1        0.2029
     25 N         137.4785  141.4904  162.2089 N.ar    1  UNL1       -0.1250
     26 N         137.6565  142.9171  161.7811 N.ar    1  UNL1       -0.1220
     27 C         138.5641  143.5875  162.7694 C.ar    1  UNL1        0.1933
     28 N         138.9471  142.5752  163.8080 N.ar    1  UNL1       -0.2860
     29 C         139.8436  142.8166  164.9861 C.3     1  UNL1        0.1341
     30 C         139.5146  138.4716  162.3509 C.3     1  UNL1        0.0556
     31 C         138.9531  138.7064  163.7219 C.ar    1  UNL1        0.1001
     32 N         138.8623  137.6920  164.8232 N.ar    1  UNL1       -0.2085
     33 C         138.2369  138.3555  166.0142 C.ar    1  UNL1        0.2849
     34 O         137.9412  139.7801  165.6491 O.2     1  UNL1       -0.4283
     35 C         138.3838  139.9970  164.2324 C.ar    1  UNL1        0.1964
@<TRIPOS>BOND
     1    30    31    1
     2    31    32   ar
     3    32    33   ar
     4    33    34   ar
     5    34    35   ar
     6    35    24    1
     7    24    25   ar
     8    25    26   ar
     9    26    27   ar
    10    27    23    1
    11    23    22    1
    12    22    21    1
    13    21    20    1
    14    20     1    1
    15     3     1    1
    16     3     4    1
    17     4     5    1
    18     5     6    1
    19     6     7    1
    20     7     9    1
    21     9    10   ar
    22    10    11   ar
    23    11    12   ar
    24    12    16    1
    25    16    17    1
    26    16    18    1
    27    16    19    1
    28    12    13   ar
    29    13    14   ar
    30    14    15    1
    31     7     8    1
    32    27    28   ar
    33    28    29    1
    34    35    31   ar
    35    28    24   ar
    36     8     3    1
    37     7     5    1
    38    14     9   ar
    39     1     2    1
@<TRIPOS>MOLECULE
*****
 35 39 0 0 0
SMALL
GASTEIGER

@<TRIPOS>ATOM
      1 N         144.5880  139.8535  161.6763 N.3     1  UNL1       -0.2985
      2 H         144.1254  140.2196  160.8442 H       1  UNL1        0.1232
      3 C         144.5339  140.9357  162.7135 C.3     1  UNL1        0.0543
      4 C         145.7073  141.5105  163.4501 C.3     1  UNL1        0.0160
      5 C         145.1954  142.5633  164.3881 C.3     1  UNL1        0.0055
      6 C         144.4036  143.5384  165.2078 C.3     1  UNL1        0.0045
      7 C         143.7056  142.6391  164.2311 C.3     1  UNL1        0.0224
      8 C         143.2967  141.6332  163.1962 C.3     1  UNL1        0.0198
      9 C         142.3225  143.1486  164.5096 C.ar    1  UNL1        0.0047
     10 C         141.5290  142.5799  165.6484 C.ar    1  UNL1       -0.0021
     11 C         140.1459  143.0894  165.9269 C.ar    1  UNL1        0.0037
     12 C         139.5563  144.1675  165.0666 C.ar    1  UNL1        0.0736
     13 C         140.3500  144.7362  163.9277 C.ar    1  UNL1        0.0332
     14 C         141.7330  144.2267  163.6493 C.ar    1  UNL1        0.1361
     15 F         142.5265  144.7953  162.5104 F       1  UNL1       -0.2045
     16 C         138.1733  144.6770  165.3451 C.3     1  UNL1        0.4186
     17 F         136.7902  145.1864  165.6236 F       1  UNL1       -0.1659
     18 F         137.6579  143.9310  164.1502 F       1  UNL1       -0.1659
     19 F         138.6887  145.4230  166.5400 F       1  UNL1       -0.1659
     20 C         143.9757  138.5134  161.9579 C.3     1  UNL1        0.0694
     21 C         142.5884  138.2067  161.4770 C.3     1  UNL1        0.0292
     22 C         141.4025  138.6068  162.3038 C.3     1  UNL1        0.0666
     23 S         141.1020  137.8838  163.5832 S.3     1  UNL1       -0.0756
     24 C         141.4319  139.4698  167.1103 C.ar    1  UNL1        0.2029
     25 N         142.8735  139.3217  166.7231 N.ar    1  UNL1       -0.1250
     26 N         142.9253  138.7096  165.3547 N.ar    1  UNL1       -0.1220
     27 C         141.5158  138.4793  164.8962 C.ar    1  UNL1        0.1933
     28 N         140.5928  138.9492  165.9813 N.ar    1  UNL1       -0.2860
     29 C         139.0939  138.9059  165.9439 C.3     1  UNL1        0.1341
     30 C         142.5681  138.7887  170.0928 C.3     1  UNL1        0.0556
     31 C         141.4417  139.7255  169.7711 C.ar    1  UNL1        0.1001
     32 N         140.6397  140.5138  170.7638 N.ar    1  UNL1       -0.2085
     33 C         139.6218  141.3141  170.0065 C.ar    1  UNL1        0.2849
     34 O         139.7947  141.0204  168.5457 O.2     1  UNL1       -0.4283
     35 C         140.9195  140.0386  168.4002 C.ar    1  UNL1        0.1964
@<TRIPOS>BOND
     1    30    31    1
     2    31    32   ar
     3    32    33   ar
     4    33    34   ar
     5    34    35   ar
     6    35    24    1
     7    24    25   ar
     8    25    26   ar
     9    26    27   ar
    10    27    23    1
    11    23    22    1
    12    22    21    1
    13    21    20    1
    14    20     1    1
    15     3     1    1
    16     3     4    1
    17     4     5    1
    18     5     6    1
    19     6     7    1
    20     7     9    1
    21     9    10   ar
    22    10    11   ar
    23    11    12   ar
    24    12    16    1
    25    16    17    1
    26    16    18    1
    27    16    19    1
    28    12    13   ar
    29    13    14   ar
    30    14    15    1
    31     7     8    1
    32    27    28   ar
    33    28    29    1
    34    35    31   ar
    35    28    24   ar
    36     8     3    1
    37     7     5    1
    38    14     9   ar
    39     1     2    1
@<TRIPOS>MOLECULE
*****
 35 39 0 0 0
SMALL
GASTEIGER

@<TRIPOS>ATOM
      1 N         139.1262  141.0196  161.4291 N.3     1  UNL1       -0.2985
      2 H         140.0445  141.4631  161.4510 H       1  UNL1        0.1232
      3 C         139.1372  139.9489  162.4796 C.3     1  UNL1        0.0543
      4 C         138.4382  138.6244  162.3960 C.3     1  UNL1        0.0160
      5 C         138.7182  137.8716  163.6628 C.3     1  UNL1        0.0055
      6 C         139.1638  137.3741  165.0059 C.3     1  UNL1        0.0045
      7 C         139.5903  138.7309  164.5295 C.3     1  UNL1        0.0224
      8 C         139.8493  140.0147  163.7982 C.3     1  UNL1        0.0198
      9 C         140.3915  139.0804  165.7485 C.ar    1  UNL1        0.0047
     10 C         139.7124  139.6719  166.9481 C.ar    1  UNL1       -0.0021
     11 C         140.5136  140.0214  168.1671 C.ar    1  UNL1        0.0037
     12 C         141.9939  139.7794  168.1865 C.ar    1  UNL1        0.0736
     13 C         142.6729  139.1880  166.9868 C.ar    1  UNL1        0.0332
     14 C         141.8717  138.8385  165.7678 C.ar    1  UNL1        0.1361
     15 F         142.5508  138.2470  164.5682 F       1  UNL1       -0.2045
     16 C         142.7951  140.1289  169.4055 C.3     1  UNL1        0.4186
     17 F         143.5963  140.4784  170.6244 F       1  UNL1       -0.1659
     18 F         142.9631  141.5288  168.8936 F       1  UNL1       -0.1659
     19 F         142.6270  138.7290  169.9173 F       1  UNL1       -0.1659
     20 C         138.1112  142.1222  161.4927 C.3     1  UNL1        0.0694
     21 C         137.7004  142.6879  162.8198 C.3     1  UNL1        0.0292
     22 C         137.7694  144.1672  163.0584 C.3     1  UNL1        0.0666
     23 S         138.6741  144.7139  164.1227 S.3     1  UNL1       -0.0756
     24 C         141.9810  142.7478  164.6359 C.ar    1  UNL1        0.2029
     25 N         141.3463  142.6052  165.9875 N.ar    1  UNL1       -0.1250
     26 N         140.0302  143.3243  165.9597 N.ar    1  UNL1       -0.1220
     27 C         139.8516  143.9114  164.5910 C.ar    1  UNL1        0.1933
     28 N         141.0573  143.5551  163.7728 N.ar    1  UNL1       -0.2860
     29 C         141.2971  143.9387  162.3427 C.3     1  UNL1        0.1341
     30 C         144.9103  143.8375  165.5749 C.3     1  UNL1        0.0556
     31 C         144.6533  142.6833  164.6520 C.ar    1  UNL1        0.1001
     32 N         145.6974  141.8272  163.9986 N.ar    1  UNL1       -0.2085
     33 C         144.9964  140.7974  163.1632 C.ar    1  UNL1        0.2849
     34 O         143.5189  141.0168  163.3003 O.2     1  UNL1       -0.4283
     35 C         143.3067  142.1824  164.2204 C.ar    1  UNL1        0.1964
@<TRIPOS>BOND
     1    30    31    1
     2    31    32   ar
     3    32    33   ar
     4    33    34   ar
     5    34    35   ar
     6    35    24    1
     7    24    25   ar
     8    25    26   ar
     9    26    27   ar
    10    27    23    1
    11    23    22    1
    12    22    21    1
    13    21    20    1
    14    20     1    1
    15     3     1    1
    16     3     4    1
    17     4     5    1
    18     5     6    1
    19     6     7    1
    20     7     9    1
    21     9    10   ar
    22    10    11   ar
    23    11    12   ar
    24    12    16    1
    25    16    17    1
    26    16    18    1
    27    16    19    1
    28    12    13   ar
    29    13    14   ar
    30    14    15    1
    31     7     8    1
    32    27    28   ar
    33    28    29    1
    34    35    31   ar
    35    28    24   ar
    36     8     3    1
    37     7     5    1
    38    14     9   ar
    39     1     2    1
@<TRIPOS>MOLECULE
*****
 35 39 0 0 0
SMALL
GASTEIGER

@<TRIPOS>ATOM
      1 N         145.3122  140.7829  162.7418 N.3     1  UNL1       -0.2985
      2 H         145.4260  140.4800  163.7091 H       1  UNL1        0.1232
      3 C         144.0361  140.1717  162.2439 C.3     1  UNL1        0.0543
      4 C         143.7155  139.8399  160.8166 C.3     1  UNL1        0.0160
      5 C         142.3378  139.2480  160.7764 C.3     1  UNL1        0.0055
      6 C         140.9673  138.7016  161.0464 C.3     1  UNL1        0.0045
      7 C         141.8069  139.2140  162.1788 C.3     1  UNL1        0.0224
      8 C         142.8565  139.7848  163.0858 C.3     1  UNL1        0.0198
      9 C         140.8028  138.9343  163.2575 C.ar    1  UNL1        0.0047
     10 C         140.7988  137.6047  163.9519 C.ar    1  UNL1       -0.0021
     11 C         139.7947  137.3249  165.0306 C.ar    1  UNL1        0.0037
     12 C         138.7947  138.3748  165.4150 C.ar    1  UNL1        0.0736
     13 C         138.7987  139.7044  164.7206 C.ar    1  UNL1        0.0332
     14 C         139.8028  139.9841  163.6419 C.ar    1  UNL1        0.1361
     15 F         139.8068  141.3137  162.9475 F       1  UNL1       -0.2045
     16 C         137.7906  138.0950  166.4937 C.3     1  UNL1        0.4186
     17 F         136.7865  137.8153  167.5723 F       1  UNL1       -0.1659
     18 F         137.9798  136.6214  166.2877 F       1  UNL1       -0.1659
     19 F         137.6014  139.5687  166.6996 F       1  UNL1       -0.1659
     20 C         145.4840  142.2730  162.7317 C.3     1  UNL1        0.0694
     21 C         144.3668  143.1536  162.2558 C.3     1  UNL1        0.0292
     22 C         143.6705  144.0685  163.2193 C.3     1  UNL1        0.0666
     23 S         142.3493  143.6722  163.8086 S.3     1  UNL1       -0.0756
     24 C         141.4994  141.9373  167.1750 C.ar    1  UNL1        0.2029
     25 N         142.9579  141.6132  167.0420 N.ar    1  UNL1       -0.1250
     26 N         143.4538  142.2236  165.7648 N.ar    1  UNL1       -0.1220
     27 C         142.3018  142.9250  165.1084 C.ar    1  UNL1        0.1933
     28 N         141.0939  142.7481  165.9800 N.ar    1  UNL1       -0.2860
     29 C         139.7214  143.2873  165.7048 C.3     1  UNL1        0.1341
     30 C         140.6310  143.7947  169.7139 C.3     1  UNL1        0.0556
     31 C         140.2045  142.3771  169.4718 C.ar    1  UNL1        0.1001
     32 N         139.3039  141.5643  170.3540 N.ar    1  UNL1       -0.2085
     33 C         139.1465  140.2084  169.7324 C.ar    1  UNL1        0.2849
     34 O         139.9497  140.1830  168.4658 O.2     1  UNL1       -0.4283
     35 C         140.6037  141.5234  168.3047 C.ar    1  UNL1        0.1964
@<TRIPOS>BOND
     1    30    31    1
     2    31    32   ar
     3    32    33   ar
     4    33    34   ar
     5    34    35   ar
     6    35    24    1
     7    24    25   ar
     8    25    26   ar
     9    26    27   ar
    10    27    23    1
    11    23    22    1
    12    22    21    1
    13    21    20    1
    14    20     1    1
    15     3     1    1
    16     3     4    1
    17     4     5    1
    18     5     6    1
    19     6     7    1
    20     7     9    1
    21     9    10   ar
    22    10    11   ar
    23    11    12   ar
    24    12    16    1
    25    16    17    1
    26    16    18    1
    27    16    19    1
    28    12    13   ar
    29    13    14   ar
    30    14    15    1
    31     7     8    1
    32    27    28   ar
    33    28    29    1
    34    35    31   ar
    35    28    24   ar
    36     8     3    1
    37     7     5    1
    38    14     9   ar
    39     1     2    1
@<TRIPOS>MOLECULE
*****
 35 39 0 0 0
SMALL
GASTEIGER

@<TRIPOS>ATOM
      1 N         142.7008  144.8284  161.9310 N.3     1  UNL1       -0.2985
      2 H         142.8641  144.2643  161.0971 H       1  UNL1        0.1232
      3 C         141.2717  144.6082  162.3299 C.3     1  UNL1        0.0543
      4 C         140.1442  145.5795  162.1418 C.3     1  UNL1        0.0160
      5 C         138.8948  144.9497  162.6825 C.3     1  UNL1        0.0055
      6 C         137.8348  144.0788  163.2890 C.3     1  UNL1        0.0045
      7 C         139.2501  143.5892  163.2048 C.3     1  UNL1        0.0224
      8 C         140.7191  143.3782  162.9868 C.3     1  UNL1        0.0198
      9 C         138.9934  142.2568  163.8441 C.ar    1  UNL1        0.0047
     10 C         139.1396  142.0966  165.3284 C.ar    1  UNL1       -0.0021
     11 C         138.8829  140.7641  165.9678 C.ar    1  UNL1        0.0037
     12 C         138.4801  139.5919  165.1229 C.ar    1  UNL1        0.0736
     13 C         138.3339  139.7522  163.6386 C.ar    1  UNL1        0.0332
     14 C         138.5906  141.0846  162.9993 C.ar    1  UNL1        0.1361
     15 F         138.4444  141.2449  161.5150 F       1  UNL1       -0.2045
     16 C         138.2234  138.2595  165.7623 C.3     1  UNL1        0.4186
     17 F         137.9667  136.9271  166.4016 F       1  UNL1       -0.1659
     18 F         137.5349  138.9416  166.9072 F       1  UNL1       -0.1659
     19 F         138.9119  137.5775  164.6174 F       1  UNL1       -0.1659
     20 C         143.8059  144.5082  162.8935 C.3     1  UNL1        0.0694
     21 C         144.6020  143.2476  162.7290 C.3     1  UNL1        0.0292
     22 C         144.7374  142.2910  163.8765 C.3     1  UNL1        0.0666
     23 S         143.8969  141.0494  163.9211 S.3     1  UNL1       -0.0756
     24 C         142.6986  140.1125  167.4920 C.ar    1  UNL1        0.2029
     25 N         143.3257  138.8238  167.0492 N.ar    1  UNL1       -0.1250
     26 N         143.8509  139.0179  165.6577 N.ar    1  UNL1       -0.1220
     27 C         143.5484  140.4266  165.2404 C.ar    1  UNL1        0.1933
     28 N         142.8363  141.1031  166.3741 N.ar    1  UNL1       -0.2860
     29 C         142.3476  142.5212  166.3875 C.3     1  UNL1        0.1341
     30 C         143.7583  142.1803  169.7835 C.3     1  UNL1        0.0556
     31 C         142.5352  141.3166  169.8729 C.ar    1  UNL1        0.1001
     32 N         141.5844  141.2516  171.0312 N.ar    1  UNL1       -0.2085
     33 C         140.5097  140.2610  170.6939 C.ar    1  UNL1        0.2849
     34 O         140.7963  139.7137  169.3270 O.2     1  UNL1       -0.4283
     35 C         142.0481  140.3660  168.8195 C.ar    1  UNL1        0.1964
@<TRIPOS>BOND
     1    30    31    1
     2    31    32   ar
     3    32    33   ar
     4    33    34   ar
     5    34    35   ar
     6    35    24    1
     7    24    25   ar
     8    25    26   ar
     9    26    27   ar
    10    27    23    1
    11    23    22    1
    12    22    21    1
    13    21    20    1
    14    20     1    1
    15     3     1    1
    16     3     4    1
    17     4     5    1
    18     5     6    1
    19     6     7    1
    20     7     9    1
    21     9    10   ar
    22    10    11   ar
    23    11    12   ar
    24    12    16    1
    25    16    17    1
    26    16    18    1
    27    16    19    1
    28    12    13   ar
    29    13    14   ar
    30    14    15    1
    31     7     8    1
    32    27    28   ar
    33    28    29    1
    34    35    31   ar
    35    28    24   ar
    36     8     3    1
    37     7     5    1
    38    14     9   ar
    39     1     2    1
@<TRIPOS>MOLECULE
*****
 35 39 0 0 0
SMALL
GASTEIGER

@<TRIPOS>ATOM
      1 N         142.2816  144.5483  161.0493 N.3     1  UNL1       -0.2985
      2 H         142.0586  145.0031  160.1640 H       1  UNL1        0.1232
      3 C         141.0069  144.4867  161.8376 C.3     1  UNL1        0.0543
      4 C         140.0112  145.5979  161.9921 C.3     1  UNL1        0.0160
      5 C         138.8930  145.1011  162.8598 C.3     1  UNL1        0.0055
      6 C         137.9414  144.3387  163.7334 C.3     1  UNL1        0.0045
      7 C         139.1976  143.6829  163.2416 C.3     1  UNL1        0.0224
      8 C         140.5040  143.3032  162.6099 C.3     1  UNL1        0.0198
      9 C         138.9574  142.3622  163.9111 C.ar    1  UNL1        0.0047
     10 C         138.1605  141.3010  163.2120 C.ar    1  UNL1       -0.0021
     11 C         137.9203  139.9803  163.8815 C.ar    1  UNL1        0.0037
     12 C         138.4770  139.7209  165.2499 C.ar    1  UNL1        0.0736
     13 C         139.2740  140.7822  165.9490 C.ar    1  UNL1        0.0332
     14 C         139.5142  142.1028  165.2795 C.ar    1  UNL1        0.1361
     15 F         140.3112  143.1640  165.9786 F       1  UNL1       -0.2045
     16 C         138.2369  138.4002  165.9194 C.3     1  UNL1        0.4186
     17 F         137.9967  137.0796  166.5888 F       1  UNL1       -0.1659
     18 F         137.8376  139.1110  167.1784 F       1  UNL1       -0.1659
     19 F         138.6361  137.6894  164.6603 F       1  UNL1       -0.1659
     20 C         143.0177  143.2851  160.7139 C.3     1  UNL1        0.0694
     21 C         144.4257  143.0880  161.1921 C.3     1  UNL1        0.0292
     22 C         144.6939  142.8167  162.6428 C.3     1  UNL1        0.0666
     23 S         143.9122  141.7598  163.3652 S.3     1  UNL1       -0.0756
     24 C         143.0110  141.3841  167.1217 C.ar    1  UNL1        0.2029
     25 N         143.5322  142.7902  167.0879 N.ar    1  UNL1       -0.1250
     26 N         143.9332  143.1021  165.6766 N.ar    1  UNL1       -0.1220
     27 C         143.6598  141.8887  164.8382 C.ar    1  UNL1        0.1933
     28 N         143.0899  140.8269  165.7314 N.ar    1  UNL1       -0.2860
     29 C         142.6722  139.4498  165.3084 C.3     1  UNL1        0.1341
     30 C         140.6314  142.4100  169.1055 C.3     1  UNL1        0.0556
     31 C         141.4067  141.1335  169.2451 C.ar    1  UNL1        0.1001
     32 N         141.2244  140.1044  170.3211 N.ar    1  UNL1       -0.2085
     33 C         142.2055  138.9969  170.0743 C.ar    1  UNL1        0.2849
     34 O         142.9941  139.3414  168.8458 O.2     1  UNL1       -0.4283
     35 C         142.5005  140.6620  168.3333 C.ar    1  UNL1        0.1964
@<TRIPOS>BOND
     1    30    31    1
     2    31    32   ar
     3    32    33   ar
     4    33    34   ar
     5    34    35   ar
     6    35    24    1
     7    24    25   ar
     8    25    26   ar
     9    26    27   ar
    10    27    23    1
    11    23    22    1
    12    22    21    1
    13    21    20    1
    14    20     1    1
    15     3     1    1
    16     3     4    1
    17     4     5    1
    18     5     6    1
    19     6     7    1
    20     7     9    1
    21     9    10   ar
    22    10    11   ar
    23    11    12   ar
    24    12    16    1
    25    16    17    1
    26    16    18    1
    27    16    19    1
    28    12    13   ar
    29    13    14   ar
    30    14    15    1
    31     7     8    1
    32    27    28   ar
    33    28    29    1
    34    35    31   ar
    35    28    24   ar
    36     8     3    1
    37     7     5    1
    38    14     9   ar
    39     1     2    1
@<TRIPOS>MOLECULE
*****
 35 39 0 0 0
SMALL
GASTEIGER

@<TRIPOS>ATOM
      1 N         137.1249  141.4277  162.4458 N.3     1  UNL1       -0.2985
      2 H         136.6860  141.0302  161.6153 H       1  UNL1        0.1232
      3 C         137.8810  140.3156  163.1103 C.3     1  UNL1        0.0543
      4 C         138.1365  138.9550  162.5329 C.3     1  UNL1        0.0160
      5 C         138.9278  138.1674  163.5346 C.3     1  UNL1        0.0055
      6 C         139.6993  137.6412  164.7084 C.3     1  UNL1        0.0045
      7 C         139.1613  139.0412  164.7313 C.3     1  UNL1        0.0224
      8 C         138.5144  140.3688  164.4690 C.3     1  UNL1        0.0198
      9 C         139.6821  139.3871  166.0947 C.ar    1  UNL1        0.0047
     10 C         141.1334  139.7170  166.2817 C.ar    1  UNL1       -0.0021
     11 C         141.6544  140.0629  167.6452 C.ar    1  UNL1        0.0037
     12 C         140.7239  140.0790  168.8217 C.ar    1  UNL1        0.0736
     13 C         139.2726  139.7491  168.6346 C.ar    1  UNL1        0.0332
     14 C         138.7517  139.4032  167.2712 C.ar    1  UNL1        0.1361
     15 F         137.3005  139.0733  167.0842 F       1  UNL1       -0.2045
     16 C         141.2448  140.4249  170.1851 C.3     1  UNL1        0.4186
     17 F         141.7657  140.7709  171.5485 F       1  UNL1       -0.1659
     18 F         141.5439  138.9770  170.4382 F       1  UNL1       -0.1659
     19 F         140.9457  141.8728  169.9320 F       1  UNL1       -0.1659
     20 C         137.8469  142.6658  162.0035 C.3     1  UNL1        0.0694
     21 C         138.0852  143.7829  162.9758 C.3     1  UNL1        0.0292
     22 C         138.7323  145.0546  162.5132 C.3     1  UNL1        0.0666
     23 S         140.2124  145.2424  162.6683 S.3     1  UNL1       -0.0756
     24 C         142.5408  142.1415  162.5013 C.ar    1  UNL1        0.2029
     25 N         142.6469  142.6595  161.0977 N.ar    1  UNL1       -0.1250
     26 N         141.7876  143.8842  160.9894 N.ar    1  UNL1       -0.1220
     27 C         141.1504  144.1231  162.3261 C.ar    1  UNL1        0.1933
     28 N         141.6159  143.0460  163.2606 N.ar    1  UNL1       -0.2860
     29 C         141.2251  142.8992  164.7013 C.3     1  UNL1        0.1341
     30 C         145.6191  142.0234  163.5783 C.3     1  UNL1        0.0556
     31 C         144.6523  140.8771  163.5446 C.ar    1  UNL1        0.1001
     32 N         144.9305  139.4752  163.9999 N.ar    1  UNL1       -0.2085
     33 C         143.6876  138.6631  163.7864 C.ar    1  UNL1        0.2849
     34 O         142.6411  139.5630  163.1990 O.2     1  UNL1       -0.4283
     35 C         143.2373  140.9314  163.0495 C.ar    1  UNL1        0.1964
@<TRIPOS>BOND
     1    30    31    1
     2    31    32   ar
     3    32    33   ar
     4    33    34   ar
     5    34    35   ar
     6    35    24    1
     7    24    25   ar
     8    25    26   ar
     9    26    27   ar
    10    27    23    1
    11    23    22    1
    12    22    21    1
    13    21    20    1
    14    20     1    1
    15     3     1    1
    16     3     4    1
    17     4     5    1
    18     5     6    1
    19     6     7    1
    20     7     9    1
    21     9    10   ar
    22    10    11   ar
    23    11    12   ar
    24    12    16    1
    25    16    17    1
    26    16    18    1
    27    16    19    1
    28    12    13   ar
    29    13    14   ar
    30    14    15    1
    31     7     8    1
    32    27    28   ar
    33    28    29    1
    34    35    31   ar
    35    28    24   ar
    36     8     3    1
    37     7     5    1
    38    14     9   ar
    39     1     2    1
@<TRIPOS>MOLECULE
*****
 35 39 0 0 0
SMALL
GASTEIGER

@<TRIPOS>ATOM
      1 N         142.8473  144.0067  160.9270 N.3     1  UNL1       -0.2985
      2 H         143.1766  144.9576  161.0936 H       1  UNL1        0.1232
      3 C         143.6407  143.1093  161.8298 C.3     1  UNL1        0.0543
      4 C         145.0450  142.6385  161.5927 C.3     1  UNL1        0.0160
      5 C         145.4413  141.7633  162.7446 C.3     1  UNL1        0.0055
      6 C         145.5487  140.9511  164.0011 C.3     1  UNL1        0.0045
      7 C         144.2820  141.6932  163.6938 C.3     1  UNL1        0.0224
      8 C         143.1691  142.5250  163.1284 C.3     1  UNL1        0.0198
      9 C         143.5455  141.2641  164.9281 C.ar    1  UNL1        0.0047
     10 C         142.8574  139.9318  164.9657 C.ar    1  UNL1       -0.0021
     11 C         142.1209  139.5026  166.2001 C.ar    1  UNL1        0.0037
     12 C         142.0726  140.4059  167.3967 C.ar    1  UNL1        0.0736
     13 C         142.7607  141.7382  167.3590 C.ar    1  UNL1        0.0332
     14 C         143.4972  142.1673  166.1247 C.ar    1  UNL1        0.1361
     15 F         144.1853  143.4996  166.0870 F       1  UNL1       -0.2045
     16 C         141.3361  139.9768  168.6310 C.3     1  UNL1        0.4186
     17 F         140.5997  139.5477  169.8653 F       1  UNL1       -0.1659
     18 F         140.2064  140.8979  168.2772 F       1  UNL1       -0.1659
     19 F         142.4658  139.0557  168.9848 F       1  UNL1       -0.1659
     20 C         141.3513  144.0421  161.0308 C.3     1  UNL1        0.0694
     21 C         140.6272  145.3549  160.9837 C.3     1  UNL1        0.0292
     22 C         139.8959  145.8519  162.1955 C.3     1  UNL1        0.0666
     23 S         138.8022  145.0246  162.8032 S.3     1  UNL1       -0.0756
     24 C         139.3633  141.3704  163.9851 C.ar    1  UNL1        0.2029
     25 N         139.9229  142.1393  165.1450 N.ar    1  UNL1       -0.1250
     26 N         139.7808  143.6018  164.8435 N.ar    1  UNL1       -0.1220
     27 C         139.1334  143.7367  163.4971 C.ar    1  UNL1        0.1933
     28 N         138.8753  142.3575  162.9666 N.ar    1  UNL1       -0.2860
     29 C         138.2408  142.0242  161.6490 C.3     1  UNL1        0.1341
     30 C         138.0923  139.3192  166.1822 C.3     1  UNL1        0.0556
     31 C         138.7181  138.9336  164.8746 C.ar    1  UNL1        0.1001
     32 N         138.8696  137.5375  164.3473 N.ar    1  UNL1       -0.2085
     33 C         139.5474  137.6175  163.0116 C.ar    1  UNL1        0.2849
     34 O         139.8149  139.0630  162.7133 O.2     1  UNL1       -0.4283
     35 C         139.3023  139.8765  163.8647 C.ar    1  UNL1        0.1964
@<TRIPOS>BOND
     1    30    31    1
     2    31    32   ar
     3    32    33   ar
     4    33    34   ar
     5    34    35   ar
     6    35    24    1
     7    24    25   ar
     8    25    26   ar
     9    26    27   ar
    10    27    23    1
    11    23    22    1
    12    22    21    1
    13    21    20    1
    14    20     1    1
    15     3     1    1
    16     3     4    1
    17     4     5    1
    18     5     6    1
    19     6     7    1
    20     7     9    1
    21     9    10   ar
    22    10    11   ar
    23    11    12   ar
    24    12    16    1
    25    16    17    1
    26    16    18    1
    27    16    19    1
    28    12    13   ar
    29    13    14   ar
    30    14    15    1
    31     7     8    1
    32    27    28   ar
    33    28    29    1
    34    35    31   ar
    35    28    24   ar
    36     8     3    1
    37     7     5    1
    38    14     9   ar
    39     1     2    1
@<TRIPOS>MOLECULE
*****
 35 39 0 0 0
SMALL
GASTEIGER

@<TRIPOS>ATOM
      1 N         142.7967  144.6522  162.0517 N.3     1  UNL1       -0.2985
      2 H         142.8237  143.9299  161.3320 H       1  UNL1        0.1232
      3 C         141.4554  144.5518  162.7157 C.3     1  UNL1        0.0543
      4 C         140.4651  145.6671  162.8758 C.3     1  UNL1        0.0160
      5 C         139.2666  145.1231  163.5952 C.3     1  UNL1        0.0055
      6 C         138.2298  144.3104  164.3125 C.3     1  UNL1        0.0045
      7 C         139.5161  143.6716  163.8798 C.3     1  UNL1        0.0224
      8 C         140.8689  143.3186  163.3362 C.3     1  UNL1        0.0198
      9 C         139.1985  142.3048  164.4099 C.ar    1  UNL1        0.0047
     10 C         139.7290  141.8767  165.7460 C.ar    1  UNL1       -0.0021
     11 C         139.4114  140.5098  166.2761 C.ar    1  UNL1        0.0037
     12 C         138.5633  139.5712  165.4701 C.ar    1  UNL1        0.0736
     13 C         138.0328  139.9994  164.1339 C.ar    1  UNL1        0.0332
     14 C         138.3504  141.3662  163.6038 C.ar    1  UNL1        0.1361
     15 F         137.8200  141.7943  162.2677 F       1  UNL1       -0.2045
     16 C         138.2457  138.2044  166.0001 C.3     1  UNL1        0.4186
     17 F         137.9281  136.8376  166.5302 F       1  UNL1       -0.1659
     18 F         137.2625  138.8053  166.9604 F       1  UNL1       -0.1659
     19 F         139.2289  137.6035  165.0398 F       1  UNL1       -0.1659
     20 C         144.0487  144.5014  162.8638 C.3     1  UNL1        0.0694
     21 C         143.9632  144.0990  164.3063 C.3     1  UNL1        0.0292
     22 C         144.7590  142.9304  164.8074 C.3     1  UNL1        0.0666
     23 S         144.9009  141.7010  163.9598 S.3     1  UNL1       -0.0756
     24 C         141.9547  139.9595  162.1290 C.ar    1  UNL1        0.2029
     25 N         141.6494  139.6198  163.5578 N.ar    1  UNL1       -0.1250
     26 N         142.7159  140.2309  164.4175 N.ar    1  UNL1       -0.1220
     27 C         143.6804  140.9481  163.5201 C.ar    1  UNL1        0.1933
     28 N         143.2099  140.7804  162.1056 N.ar    1  UNL1       -0.2860
     29 C         143.8774  141.3360  160.8827 C.3     1  UNL1        0.1341
     30 C         142.8690  137.8257  159.8352 C.3     1  UNL1        0.0556
     31 C         141.5669  138.5692  159.8791 C.ar    1  UNL1        0.1001
     32 N         140.4565  138.4626  158.8763 N.ar    1  UNL1       -0.2085
     33 C         139.3500  139.3774  159.3108 C.ar    1  UNL1        0.2849
     34 O         139.7765  140.0495  160.5822 O.2     1  UNL1       -0.4283
     35 C         141.1467  139.5500  160.9334 C.ar    1  UNL1        0.1964
@<TRIPOS>BOND
     1    30    31    1
     2    31    32   ar
     3    32    33   ar
     4    33    34   ar
     5    34    35   ar
     6    35    24    1
     7    24    25   ar
     8    25    26   ar
     9    26    27   ar
    10    27    23    1
    11    23    22    1
    12    22    21    1
    13    21    20    1
    14    20     1    1
    15     3     1    1
    16     3     4    1
    17     4     5    1
    18     5     6    1
    19     6     7    1
    20     7     9    1
    21     9    10   ar
    22    10    11   ar
    23    11    12   ar
    24    12    16    1
    25    16    17    1
    26    16    18    1
    27    16    19    1
    28    12    13   ar
    29    13    14   ar
    30    14    15    1
    31     7     8    1
    32    27    28   ar
    33    28    29    1
    34    35    31   ar
    35    28    24   ar
    36     8     3    1
    37     7     5    1
    38    14     9   ar
    39     1     2    1
