@<TRIPOS>MOLECULE
*****
 35 38 0 0 0
SMALL
GASTEIGER

@<TRIPOS>ATOM
      1 C         141.5137  143.2166  161.5773 C.ar    1  UNL1        0.0537
      2 C         141.8602  142.1933  160.5367 C.ar    1  UNL1        0.0060
      3 C         142.3323  140.8314  160.9521 C.ar    1  UNL1        0.0173
      4 C         142.4578  140.4928  162.4079 C.ar    1  UNL1        0.0594
      5 C         142.1113  141.5161  163.4484 C.ar    1  UNL1        0.0130
      6 C         141.6393  142.8780  163.0331 C.ar    1  UNL1        0.0057
      7 C         142.3324  140.8987  164.7975 C.ar    1  UNL1       -0.0091
      8 C         142.8155  139.4938  164.5907 C.ar    1  UNL1        0.0331
      9 N         142.8930  139.2430  163.1139 N.ar    1  UNL1       -0.3289
     10 C         143.3292  137.9664  162.4581 C.3     1  UNL1        0.1301
     11 C         143.1224  138.6244  165.7738 C.3     1  UNL1        0.0435
     12 C         142.9462  139.1599  167.1639 C.3     1  UNL1        0.0066
     13 C         142.4631  140.5648  167.3707 C.3     1  UNL1        0.0049
     14 C         142.1562  141.4342  166.1875 C.3     1  UNL1        0.0275
     15 C         142.2869  141.1004  168.7607 C.3     1  UNL1        0.0053
     16 C         142.9396  142.3920  169.1552 C.3     1  UNL1        0.0322
     17 C         142.7634  142.9276  170.5452 C.3     1  UNL1        0.1422
     18 O         141.9344  142.1714  171.5408 O.3     1  UNL1       -0.3538
     19 C         141.2817  140.8797  171.1464 C.3     1  UNL1        0.1422
     20 C         141.4579  140.3442  169.7563 C.3     1  UNL1        0.0322
     21 C         139.3523  146.5394  161.3861 C.3     1  UNL1        0.1152
     22 N         139.8243  145.1776  161.8015 N.am    1  UNL1       -0.2743
     23 C         141.0417  144.5784  161.1619 C.2     1  UNL1        0.2491
     24 O         141.7870  145.3411  160.1071 O.2     1  UNL1       -0.2699
     25 C         139.0790  144.4149  162.8564 C.3     1  UNL1        0.0943
     26 C         137.9361  143.5232  162.4707 C.3     1  UNL1        0.0311
     27 C         137.6496  142.2844  163.2665 C.3     1  UNL1        0.0868
     28 C         138.3797  141.0104  162.9599 C.2     1  UNL1        0.2226
     29 O         138.8284  140.7220  161.5579 O.2     1  UNL1       -0.2751
     30 N         138.6609  140.0249  164.0551 N.am    1  UNL1       -0.3020
     31 H         138.3663  140.2143  164.9752 H       1  UNL1        0.1495
     32 C         139.3909  138.7509  163.7485 C.3     1  UNL1        0.1213
     33 C         138.6583  137.5965  163.1316 C.3     1  UNL1        0.1583
     34 O         138.0438  137.7392  161.7707 O.3     1  UNL1       -0.3802
     35 H         137.3234  138.3877  161.8077 H       1  UNL1        0.2105
@<TRIPOS>BOND
     1    21    22    1
     2    22    25    1
     3    25    26    1
     4    26    27    1
     5    27    28    1
     6    28    29    2
     7    28    30   am
     8    30    32    1
     9    32    33    1
    10    33    34    1
    11    22    23   am
    12    23    24    2
    13    23     1    1
    14     1     2   ar
    15     2     3   ar
    16     3     4   ar
    17     4     5   ar
    18     5     6   ar
    19     5     7   ar
    20     7     8   ar
    21     8     9   ar
    22     9    10    1
    23     8    11    1
    24    11    12    1
    25    12    13    1
    26    13    15    1
    27    15    16    1
    28    16    17    1
    29    17    18    1
    30    18    19    1
    31    19    20    1
    32    13    14    1
    33     6     1   ar
    34    14     7    1
    35     9     4   ar
    36    20    15    1
    37    30    31    1
    38    34    35    1
@<TRIPOS>MOLECULE
*****
 35 38 0 0 0
SMALL
GASTEIGER

@<TRIPOS>ATOM
      1 C         140.6910  140.5627  159.5918 C.ar    1  UNL1        0.0537
      2 C         140.5463  141.7354  158.6679 C.ar    1  UNL1        0.0060
      3 C         140.2926  143.1039  159.2270 C.ar    1  UNL1        0.0173
      4 C         140.1836  143.2998  160.7101 C.ar    1  UNL1        0.0594
      5 C         140.3284  142.1271  161.6341 C.ar    1  UNL1        0.0130
      6 C         140.5821  140.7585  161.0750 C.ar    1  UNL1        0.0057
      7 C         140.1740  142.6237  163.0411 C.ar    1  UNL1       -0.0091
      8 C         139.9338  144.1034  162.9867 C.ar    1  UNL1        0.0331
      9 N         139.9398  144.5212  161.5460 N.ar    1  UNL1       -0.3289
     10 C         139.7374  145.9156  161.0316 C.3     1  UNL1        0.1301
     11 C         139.7407  144.8791  164.2558 C.3     1  UNL1        0.0435
     12 C         139.7878  144.1751  165.5796 C.3     1  UNL1        0.0066
     13 C         140.0280  142.6955  165.6341 C.3     1  UNL1        0.0049
     14 C         140.2211  141.9198  164.3648 C.3     1  UNL1        0.0275
     15 C         140.0750  141.9915  166.9578 C.3     1  UNL1        0.0053
     16 C         139.6179  140.5670  167.0664 C.3     1  UNL1        0.0322
     17 C         139.6650  139.8630  168.3901 C.3     1  UNL1        0.1422
     18 O         140.1692  140.5837  169.6053 O.3     1  UNL1       -0.3538
     19 C         140.6263  142.0082  169.4967 C.3     1  UNL1        0.1422
     20 C         140.5792  142.7121  168.1730 C.3     1  UNL1        0.0322
     21 C         142.6049  137.3600  158.2390 C.3     1  UNL1        0.1152
     22 N         142.3512  138.7286  158.7982 N.am    1  UNL1       -0.2743
     23 C         140.9447  139.1941  159.0327 C.2     1  UNL1        0.2491
     24 O         139.7919  138.2910  158.7081 O.2     1  UNL1       -0.2699
     25 C         143.5041  139.6317  159.1228 C.3     1  UNL1        0.0943
     26 C         144.0519  139.6766  160.5185 C.3     1  UNL1        0.0311
     27 C         144.0675  138.4337  161.3583 C.3     1  UNL1        0.0868
     28 C         143.0145  138.2229  162.4055 C.2     1  UNL1        0.2226
     29 O         143.2262  138.7415  163.7970 O.2     1  UNL1       -0.2751
     30 N         141.7499  137.4934  162.0612 N.am    1  UNL1       -0.3020
     31 H         141.6111  137.1531  161.1479 H       1  UNL1        0.1495
     32 C         140.6968  137.2825  163.1084 C.3     1  UNL1        0.1213
     33 C         139.2820  137.7054  162.8451 C.3     1  UNL1        0.1583
     34 O         138.7436  137.6924  161.4452 O.3     1  UNL1       -0.3802
     35 H         139.2125  138.3535  160.9123 H       1  UNL1        0.2105
@<TRIPOS>BOND
     1    21    22    1
     2    22    25    1
     3    25    26    1
     4    26    27    1
     5    27    28    1
     6    28    29    2
     7    28    30   am
     8    30    32    1
     9    32    33    1
    10    33    34    1
    11    22    23   am
    12    23    24    2
    13    23     1    1
    14     1     2   ar
    15     2     3   ar
    16     3     4   ar
    17     4     5   ar
    18     5     6   ar
    19     5     7   ar
    20     7     8   ar
    21     8     9   ar
    22     9    10    1
    23     8    11    1
    24    11    12    1
    25    12    13    1
    26    13    15    1
    27    15    16    1
    28    16    17    1
    29    17    18    1
    30    18    19    1
    31    19    20    1
    32    13    14    1
    33     6     1   ar
    34    14     7    1
    35     9     4   ar
    36    20    15    1
    37    30    31    1
    38    34    35    1
@<TRIPOS>MOLECULE
*****
 35 38 0 0 0
SMALL
GASTEIGER

@<TRIPOS>ATOM
      1 C         140.0099  143.3005  160.6553 C.ar    1  UNL1        0.0537
      2 C         139.3908  142.1666  159.8932 C.ar    1  UNL1        0.0060
      3 C         139.0323  140.8940  160.6018 C.ar    1  UNL1        0.0173
      4 C         139.2927  140.7555  162.0725 C.ar    1  UNL1        0.0594
      5 C         139.9118  141.8895  162.8345 C.ar    1  UNL1        0.0130
      6 C         140.2704  143.1620  162.1259 C.ar    1  UNL1        0.0057
      7 C         140.0493  141.4651  164.2668 C.ar    1  UNL1       -0.0091
      8 C         139.5152  140.0689  164.3898 C.ar    1  UNL1        0.0331
      9 N         139.0476  139.6303  163.0336 N.ar    1  UNL1       -0.3289
     10 C         138.4413  138.3001  162.6976 C.3     1  UNL1        0.1301
     11 C         139.5235  139.3772  165.7207 C.3     1  UNL1        0.0435
     12 C         140.0661  140.0818  166.9287 C.3     1  UNL1        0.0066
     13 C         140.6002  141.4781  166.8057 C.3     1  UNL1        0.0049
     14 C         140.5918  142.1697  165.4747 C.3     1  UNL1        0.0275
     15 C         141.1427  142.1827  168.0136 C.3     1  UNL1        0.0053
     16 C         140.2859  143.1638  168.7575 C.3     1  UNL1        0.0322
     17 C         140.8285  143.8684  169.9654 C.3     1  UNL1        0.1422
     18 O         142.2279  143.5919  170.4296 O.3     1  UNL1       -0.3538
     19 C         143.0846  142.6108  169.6858 C.3     1  UNL1        0.1422
     20 C         142.5421  141.9062  168.4778 C.3     1  UNL1        0.0322
     21 C         141.7449  145.8294  158.1364 C.3     1  UNL1        0.1152
     22 N         141.3863  144.5569  158.8450 N.am    1  UNL1       -0.2743
     23 C         140.3685  144.5731  159.9467 C.2     1  UNL1        0.2491
     24 O         139.7092  145.8618  160.3398 O.2     1  UNL1       -0.2699
     25 C         142.0456  143.2681  158.4519 C.3     1  UNL1        0.0943
     26 C         143.4162  142.9397  158.9653 C.3     1  UNL1        0.0311
     27 C         143.5778  142.0050  160.1273 C.3     1  UNL1        0.0868
     28 C         144.1553  142.5058  161.4179 C.2     1  UNL1        0.2226
     29 O         143.9937  143.9466  161.8029 O.2     1  UNL1       -0.2751
     30 N         144.8944  141.5659  162.3236 N.am    1  UNL1       -0.3020
     31 H         145.0004  140.6203  162.0709 H       1  UNL1        0.1495
     32 C         145.4719  142.0667  163.6142 C.3     1  UNL1        0.1213
     33 C         144.5626  142.4539  164.7425 C.3     1  UNL1        0.1583
     34 O         144.0183  143.8494  164.8219 O.3     1  UNL1       -0.3802
     35 H         144.7457  144.4717  164.9787 H       1  UNL1        0.2105
@<TRIPOS>BOND
     1    21    22    1
     2    22    25    1
     3    25    26    1
     4    26    27    1
     5    27    28    1
     6    28    29    2
     7    28    30   am
     8    30    32    1
     9    32    33    1
    10    33    34    1
    11    22    23   am
    12    23    24    2
    13    23     1    1
    14     1     2   ar
    15     2     3   ar
    16     3     4   ar
    17     4     5   ar
    18     5     6   ar
    19     5     7   ar
    20     7     8   ar
    21     8     9   ar
    22     9    10    1
    23     8    11    1
    24    11    12    1
    25    12    13    1
    26    13    15    1
    27    15    16    1
    28    16    17    1
    29    17    18    1
    30    18    19    1
    31    19    20    1
    32    13    14    1
    33     6     1   ar
    34    14     7    1
    35     9     4   ar
    36    20    15    1
    37    30    31    1
    38    34    35    1
@<TRIPOS>MOLECULE
*****
 35 38 0 0 0
SMALL
GASTEIGER

@<TRIPOS>ATOM
      1 C         141.5018  140.7030  159.3262 C.ar    1  UNL1        0.0537
      2 C         142.5414  141.7008  158.9097 C.ar    1  UNL1        0.0060
      3 C         143.1736  142.5968  159.9332 C.ar    1  UNL1        0.0173
      4 C         142.7662  142.4950  161.3731 C.ar    1  UNL1        0.0594
      5 C         141.7266  141.4972  161.7897 C.ar    1  UNL1        0.0130
      6 C         141.0944  140.6012  160.7662 C.ar    1  UNL1        0.0057
      7 C         141.5288  141.6249  163.2711 C.ar    1  UNL1       -0.0091
      8 C         142.4461  142.7016  163.7701 C.ar    1  UNL1        0.0331
      9 N         143.2109  143.2394  162.5971 N.ar    1  UNL1       -0.3289
     10 C         144.2398  144.3300  162.6404 C.3     1  UNL1        0.1301
     11 C         142.4666  143.0534  165.2281 C.3     1  UNL1        0.0435
     12 C         141.5696  142.3283  166.1872 C.3     1  UNL1        0.0066
     13 C         140.6523  141.2515  165.6882 C.3     1  UNL1        0.0049
     14 C         140.6319  140.8999  164.2301 C.3     1  UNL1        0.0275
     15 C         139.7553  140.5265  166.6472 C.3     1  UNL1        0.0053
     16 C         138.7050  139.5891  166.1293 C.3     1  UNL1        0.0322
     17 C         137.8080  138.8641  167.0884 C.3     1  UNL1        0.1422
     18 O         137.9614  139.0764  168.5654 O.3     1  UNL1       -0.3538
     19 C         139.0117  140.0137  169.0833 C.3     1  UNL1        0.1422
     20 C         139.9087  140.7388  168.1242 C.3     1  UNL1        0.0322
     21 C         140.8844  137.6054  156.9234 C.3     1  UNL1        0.1152
     22 N         141.5166  138.5014  157.9468 N.am    1  UNL1       -0.2743
     23 C         140.8696  139.8070  158.3028 C.2     1  UNL1        0.2491
     24 O         139.5903  140.2166  157.6353 O.2     1  UNL1       -0.2699
     25 C         142.7960  138.0918  158.6144 C.3     1  UNL1        0.0943
     26 C         142.7724  137.5523  160.0138 C.3     1  UNL1        0.0311
     27 C         143.8972  137.8630  160.9564 C.3     1  UNL1        0.0868
     28 C         143.6006  138.3676  162.3374 C.2     1  UNL1        0.2226
     29 O         142.2681  138.0895  162.9675 O.2     1  UNL1       -0.2751
     30 N         144.6366  139.1503  163.0885 N.am    1  UNL1       -0.3020
     31 H         145.5112  139.3329  162.6749 H       1  UNL1        0.1495
     32 C         144.3400  139.6550  164.4696 C.3     1  UNL1        0.1213
     33 C         144.0563  138.6847  165.5778 C.3     1  UNL1        0.1583
     34 O         142.6452  138.2638  165.8630 O.3     1  UNL1       -0.3802
     35 H         142.1383  139.0269  166.1817 H       1  UNL1        0.2105
@<TRIPOS>BOND
     1    21    22    1
     2    22    25    1
     3    25    26    1
     4    26    27    1
     5    27    28    1
     6    28    29    2
     7    28    30   am
     8    30    32    1
     9    32    33    1
    10    33    34    1
    11    22    23   am
    12    23    24    2
    13    23     1    1
    14     1     2   ar
    15     2     3   ar
    16     3     4   ar
    17     4     5   ar
    18     5     6   ar
    19     5     7   ar
    20     7     8   ar
    21     8     9   ar
    22     9    10    1
    23     8    11    1
    24    11    12    1
    25    12    13    1
    26    13    15    1
    27    15    16    1
    28    16    17    1
    29    17    18    1
    30    18    19    1
    31    19    20    1
    32    13    14    1
    33     6     1   ar
    34    14     7    1
    35     9     4   ar
    36    20    15    1
    37    30    31    1
    38    34    35    1
@<TRIPOS>MOLECULE
*****
 35 38 0 0 0
SMALL
GASTEIGER

@<TRIPOS>ATOM
      1 C         141.6699  141.4983  160.6596 C.ar    1  UNL1        0.0537
      2 C         140.9514  140.3514  160.0128 C.ar    1  UNL1        0.0060
      3 C         140.1798  139.3790  160.8549 C.ar    1  UNL1        0.0173
      4 C         140.1267  139.5536  162.3438 C.ar    1  UNL1        0.0594
      5 C         140.8451  140.7005  162.9905 C.ar    1  UNL1        0.0130
      6 C         141.6168  141.6729  162.1484 C.ar    1  UNL1        0.0057
      7 C         140.6143  140.6169  164.4703 C.ar    1  UNL1       -0.0091
      8 C         139.7532  139.4183  164.7381 C.ar    1  UNL1        0.0331
      9 N         139.4518  138.7611  163.4238 N.ar    1  UNL1       -0.3289
     10 C         138.6213  137.5280  163.2246 C.3     1  UNL1        0.1301
     11 C         139.3547  139.0801  166.1441 C.3     1  UNL1        0.0435
     12 C         139.8175  139.9406  167.2823 C.3     1  UNL1        0.0066
     13 C         140.6786  141.1392  167.0145 C.3     1  UNL1        0.0049
     14 C         141.0770  141.4773  165.6085 C.3     1  UNL1        0.0275
     15 C         141.1413  141.9996  168.1527 C.3     1  UNL1        0.0053
     16 C         140.2398  143.0652  168.7021 C.3     1  UNL1        0.0322
     17 C         140.7025  143.9256  169.8403 C.3     1  UNL1        0.1422
     18 O         142.0669  143.7205  170.4292 O.3     1  UNL1       -0.3538
     19 C         142.9684  142.6549  169.8798 C.3     1  UNL1        0.1422
     20 C         142.5057  141.7945  168.7416 C.3     1  UNL1        0.0322
     21 C         142.5037  144.5812  158.3036 C.3     1  UNL1        0.1152
     22 N         141.7321  143.6088  159.1457 N.am    1  UNL1       -0.2743
     23 C         142.4415  142.4706  159.8175 C.2     1  UNL1        0.2491
     24 O         143.9225  142.3048  159.6471 O.2     1  UNL1       -0.2699
     25 C         140.2510  143.7747  159.3161 C.3     1  UNL1        0.0943
     26 C         139.7000  144.3168  160.6015 C.3     1  UNL1        0.0311
     27 C         140.3761  145.4714  161.2797 C.3     1  UNL1        0.0868
     28 C         141.3154  145.2243  162.4228 C.2     1  UNL1        0.2226
     29 O         140.7788  145.0743  163.8154 O.2     1  UNL1       -0.2751
     30 N         142.7913  145.1273  162.1732 N.am    1  UNL1       -0.3020
     31 H         143.1434  145.2257  161.2591 H       1  UNL1        0.1495
     32 C         143.7306  144.8802  163.3163 C.3     1  UNL1        0.1213
     33 C         144.3918  143.5424  163.4680 C.3     1  UNL1        0.1583
     34 O         144.4546  142.8853  164.8149 O.3     1  UNL1       -0.3802
     35 H         145.0158  143.4117  165.4056 H       1  UNL1        0.2105
@<TRIPOS>BOND
     1    21    22    1
     2    22    25    1
     3    25    26    1
     4    26    27    1
     5    27    28    1
     6    28    29    2
     7    28    30   am
     8    30    32    1
     9    32    33    1
    10    33    34    1
    11    22    23   am
    12    23    24    2
    13    23     1    1
    14     1     2   ar
    15     2     3   ar
    16     3     4   ar
    17     4     5   ar
    18     5     6   ar
    19     5     7   ar
    20     7     8   ar
    21     8     9   ar
    22     9    10    1
    23     8    11    1
    24    11    12    1
    25    12    13    1
    26    13    15    1
    27    15    16    1
    28    16    17    1
    29    17    18    1
    30    18    19    1
    31    19    20    1
    32    13    14    1
    33     6     1   ar
    34    14     7    1
    35     9     4   ar
    36    20    15    1
    37    30    31    1
    38    34    35    1
@<TRIPOS>MOLECULE
*****
 35 38 0 0 0
SMALL
GASTEIGER

@<TRIPOS>ATOM
      1 C         140.5125  140.4311  160.2209 C.ar    1  UNL1        0.0537
      2 C         140.0630  141.6597  159.4869 C.ar    1  UNL1        0.0060
      3 C         139.7082  142.9014  160.2499 C.ar    1  UNL1        0.0173
      4 C         139.8028  142.9147  161.7468 C.ar    1  UNL1        0.0594
      5 C         140.2522  141.6862  162.4808 C.ar    1  UNL1        0.0130
      6 C         140.6070  140.4444  161.7178 C.ar    1  UNL1        0.0057
      7 C         140.2482  141.9956  163.9486 C.ar    1  UNL1       -0.0091
      8 C         139.7963  143.4154  164.1217 C.ar    1  UNL1        0.0331
      9 N         139.5210  143.9834  162.7609 N.ar    1  UNL1       -0.3289
     10 C         139.0472  145.3757  162.4660 C.3     1  UNL1        0.1301
     11 C         139.6938  144.0076  165.4959 C.3     1  UNL1        0.0435
     12 C         140.0433  143.1799  166.6972 C.3     1  UNL1        0.0066
     13 C         140.4952  141.7602  166.5241 C.3     1  UNL1        0.0049
     14 C         140.5976  141.1680  165.1497 C.3     1  UNL1        0.0275
     15 C         140.8447  140.9325  167.7253 C.3     1  UNL1        0.0053
     16 C         142.1443  140.1850  167.7687 C.3     1  UNL1        0.0322
     17 C         142.4938  139.3573  168.9699 C.3     1  UNL1        0.1422
     18 O         141.5435  139.2773  170.1278 O.3     1  UNL1       -0.3538
     19 C         140.2438  140.0249  170.0844 C.3     1  UNL1        0.1422
     20 C         139.8943  140.8525  168.8832 C.3     1  UNL1        0.0322
     21 C         142.6613  137.5713  158.5022 C.3     1  UNL1        0.1152
     22 N         142.3064  138.8131  159.2651 N.am    1  UNL1       -0.2743
     23 C         140.8673  139.1894  159.4579 C.2     1  UNL1        0.2491
     24 O         139.7830  138.3239  158.8877 O.2     1  UNL1       -0.2699
     25 C         143.3908  139.6786  159.8354 C.3     1  UNL1        0.0943
     26 C         144.2142  139.1869  160.9887 C.3     1  UNL1        0.0311
     27 C         144.1139  139.8631  162.3240 C.3     1  UNL1        0.0868
     28 C         144.4559  141.3176  162.4557 C.2     1  UNL1        0.2226
     29 O         145.5437  141.9117  161.6109 O.2     1  UNL1       -0.2751
     30 N         143.7102  142.1780  163.4322 N.am    1  UNL1       -0.3020
     31 H         142.9962  141.7880  163.9867 H       1  UNL1        0.1495
     32 C         144.0522  143.6326  163.5639 C.3     1  UNL1        0.1213
     33 C         143.0903  144.6762  163.0788 C.3     1  UNL1        0.1583
     34 O         142.7894  144.7958  161.6142 O.3     1  UNL1       -0.3802
     35 H         143.5880  145.0792  161.1421 H       1  UNL1        0.2105
@<TRIPOS>BOND
     1    21    22    1
     2    22    25    1
     3    25    26    1
     4    26    27    1
     5    27    28    1
     6    28    29    2
     7    28    30   am
     8    30    32    1
     9    32    33    1
    10    33    34    1
    11    22    23   am
    12    23    24    2
    13    23     1    1
    14     1     2   ar
    15     2     3   ar
    16     3     4   ar
    17     4     5   ar
    18     5     6   ar
    19     5     7   ar
    20     7     8   ar
    21     8     9   ar
    22     9    10    1
    23     8    11    1
    24    11    12    1
    25    12    13    1
    26    13    15    1
    27    15    16    1
    28    16    17    1
    29    17    18    1
    30    18    19    1
    31    19    20    1
    32    13    14    1
    33     6     1   ar
    34    14     7    1
    35     9     4   ar
    36    20    15    1
    37    30    31    1
    38    34    35    1
@<TRIPOS>MOLECULE
*****
 35 38 0 0 0
SMALL
GASTEIGER

@<TRIPOS>ATOM
      1 C         142.6318  140.5428  161.8757 C.ar    1  UNL1        0.0537
      2 C         141.8676  139.6713  160.9237 C.ar    1  UNL1        0.0060
      3 C         140.6590  138.9208  161.3991 C.ar    1  UNL1        0.0173
      4 C         140.2145  139.0419  162.8266 C.ar    1  UNL1        0.0594
      5 C         140.9786  139.9135  163.7786 C.ar    1  UNL1        0.0130
      6 C         142.1873  140.6639  163.3032 C.ar    1  UNL1        0.0057
      7 C         140.3071  139.8373  165.1178 C.ar    1  UNL1       -0.0091
      8 C         139.1279  138.9186  164.9933 C.ar    1  UNL1        0.0331
      9 N         139.0707  138.4271  163.5773 N.ar    1  UNL1       -0.3289
     10 C         138.0490  137.4859  163.0113 C.3     1  UNL1        0.1301
     11 C         138.2586  138.6483  166.1854 C.3     1  UNL1        0.0435
     12 C         138.5685  139.2968  167.5021 C.3     1  UNL1        0.0066
     13 C         139.7477  140.2154  167.6265 C.3     1  UNL1        0.0049
     14 C         140.6170  140.4856  166.4343 C.3     1  UNL1        0.0275
     15 C         140.0576  140.8638  168.9432 C.3     1  UNL1        0.0053
     16 C         139.9957  142.3566  169.0770 C.3     1  UNL1        0.0322
     17 C         140.3056  143.0050  170.3937 C.3     1  UNL1        0.1422
     18 O         140.6775  142.1606  171.5765 O.3     1  UNL1       -0.3538
     19 C         140.7394  140.6679  171.4426 C.3     1  UNL1        0.1422
     20 C         140.4295  140.0195  170.1259 C.3     1  UNL1        0.0322
     21 C         144.9269  143.0250  159.7970 C.3     1  UNL1        0.1152
     22 N         143.7182  142.2745  160.2724 N.am    1  UNL1       -0.2743
     23 C         143.8404  141.2932  161.4003 C.2     1  UNL1        0.2491
     24 O         145.1712  141.0624  162.0527 O.2     1  UNL1       -0.2699
     25 C         142.3874  142.5054  159.6199 C.3     1  UNL1        0.0943
     26 C         141.7230  143.8461  159.7253 C.3     1  UNL1        0.0311
     27 C         141.5755  144.5069  161.0638 C.3     1  UNL1        0.0868
     28 C         140.4964  144.0611  162.0055 C.2     1  UNL1        0.2226
     29 O         140.8164  143.8143  163.4500 O.2     1  UNL1       -0.2751
     30 N         139.0973  143.8620  161.5026 N.am    1  UNL1       -0.3020
     31 H         138.8873  144.0241  160.5545 H       1  UNL1        0.1495
     32 C         138.0182  143.4162  162.4443 C.3     1  UNL1        0.1213
     33 C         137.9589  141.9865  162.8942 C.3     1  UNL1        0.1583
     34 O         136.6385  141.2794  162.9736 O.3     1  UNL1       -0.3802
     35 H         136.0932  141.6893  163.6632 H       1  UNL1        0.2105
@<TRIPOS>BOND
     1    21    22    1
     2    22    25    1
     3    25    26    1
     4    26    27    1
     5    27    28    1
     6    28    29    2
     7    28    30   am
     8    30    32    1
     9    32    33    1
    10    33    34    1
    11    22    23   am
    12    23    24    2
    13    23     1    1
    14     1     2   ar
    15     2     3   ar
    16     3     4   ar
    17     4     5   ar
    18     5     6   ar
    19     5     7   ar
    20     7     8   ar
    21     8     9   ar
    22     9    10    1
    23     8    11    1
    24    11    12    1
    25    12    13    1
    26    13    15    1
    27    15    16    1
    28    16    17    1
    29    17    18    1
    30    18    19    1
    31    19    20    1
    32    13    14    1
    33     6     1   ar
    34    14     7    1
    35     9     4   ar
    36    20    15    1
    37    30    31    1
    38    34    35    1
@<TRIPOS>MOLECULE
*****
 35 38 0 0 0
SMALL
GASTEIGER

@<TRIPOS>ATOM
      1 C         140.0741  143.0040  160.8195 C.ar    1  UNL1        0.0537
      2 C         139.5010  141.8266  160.0880 C.ar    1  UNL1        0.0060
      3 C         139.1726  140.5674  160.8340 C.ar    1  UNL1        0.0173
      4 C         139.4173  140.4857  162.3117 C.ar    1  UNL1        0.0594
      5 C         139.9904  141.6631  163.0432 C.ar    1  UNL1        0.0130
      6 C         140.3188  142.9222  162.2972 C.ar    1  UNL1        0.0057
      7 C         140.1216  141.2906  164.4904 C.ar    1  UNL1       -0.0091
      8 C         139.6295  139.8830  164.6531 C.ar    1  UNL1        0.0331
      9 N         139.1943  139.3855  163.3066 N.ar    1  UNL1       -0.3289
     10 C         138.6343  138.0265  163.0076 C.3     1  UNL1        0.1301
     11 C         139.6413  139.2361  166.0064 C.3     1  UNL1        0.0435
     12 C         140.1453  139.9969  167.1969 C.3     1  UNL1        0.0066
     13 C         140.6373  141.4045  167.0341 C.3     1  UNL1        0.0049
     14 C         140.6255  142.0513  165.6808 C.3     1  UNL1        0.0275
     15 C         141.1412  142.1652  168.2247 C.3     1  UNL1        0.0053
     16 C         142.4938  141.8561  168.7946 C.3     1  UNL1        0.0322
     17 C         142.9978  142.6168  169.9852 C.3     1  UNL1        0.1422
     18 O         142.1490  143.6867  170.6058 O.3     1  UNL1       -0.3538
     19 C         140.7964  143.9959  170.0358 C.3     1  UNL1        0.1422
     20 C         140.2925  143.2351  168.8453 C.3     1  UNL1        0.0322
     21 C         141.9483  145.5802  158.4530 C.3     1  UNL1        0.1152
     22 N         141.6199  144.3210  159.1990 N.am    1  UNL1       -0.2743
     23 C         140.4026  144.2632  160.0735 C.2     1  UNL1        0.2491
     24 O         139.5136  145.4646  160.2019 O.2     1  UNL1       -0.2699
     25 C         142.5089  143.1196  159.0706 C.3     1  UNL1        0.0943
     26 C         143.5037  142.8042  160.1480 C.3     1  UNL1        0.0311
     27 C         144.0216  141.4051  160.3043 C.3     1  UNL1        0.0868
     28 C         144.4004  140.8929  161.6623 C.2     1  UNL1        0.2226
     29 O         145.5383  141.5218  162.4105 O.2     1  UNL1       -0.2751
     30 N         143.6414  139.7518  162.2720 N.am    1  UNL1       -0.3020
     31 H         142.8946  139.3391  161.7809 H       1  UNL1        0.1495
     32 C         144.0202  139.2396  163.6300 C.3     1  UNL1        0.1213
     33 C         143.5102  139.9290  164.8607 C.3     1  UNL1        0.1583
     34 O         143.4283  139.1823  166.1591 O.3     1  UNL1       -0.3802
     35 H         142.7688  138.4749  166.0842 H       1  UNL1        0.2105
@<TRIPOS>BOND
     1    21    22    1
     2    22    25    1
     3    25    26    1
     4    26    27    1
     5    27    28    1
     6    28    29    2
     7    28    30   am
     8    30    32    1
     9    32    33    1
    10    33    34    1
    11    22    23   am
    12    23    24    2
    13    23     1    1
    14     1     2   ar
    15     2     3   ar
    16     3     4   ar
    17     4     5   ar
    18     5     6   ar
    19     5     7   ar
    20     7     8   ar
    21     8     9   ar
    22     9    10    1
    23     8    11    1
    24    11    12    1
    25    12    13    1
    26    13    15    1
    27    15    16    1
    28    16    17    1
    29    17    18    1
    30    18    19    1
    31    19    20    1
    32    13    14    1
    33     6     1   ar
    34    14     7    1
    35     9     4   ar
    36    20    15    1
    37    30    31    1
    38    34    35    1
@<TRIPOS>MOLECULE
*****
 35 38 0 0 0
SMALL
GASTEIGER

@<TRIPOS>ATOM
      1 C         142.1521  141.2199  159.7022 C.ar    1  UNL1        0.0537
      2 C         141.6832  142.4394  158.9654 C.ar    1  UNL1        0.0060
      3 C         141.0280  143.5622  159.7138 C.ar    1  UNL1        0.0173
      4 C         140.8417  143.4655  161.1990 C.ar    1  UNL1        0.0594
      5 C         141.3106  142.2460  161.9358 C.ar    1  UNL1        0.0130
      6 C         141.9658  141.1232  161.1874 C.ar    1  UNL1        0.0057
      7 C         140.9935  142.4325  163.3901 C.ar    1  UNL1       -0.0091
      8 C         140.3286  143.7673  163.5520 C.ar    1  UNL1        0.0331
      9 N         140.2348  144.4057  162.1978 N.ar    1  UNL1       -0.3289
     10 C         139.6387  145.7486  161.8956 C.3     1  UNL1        0.1301
     11 C         139.8945  144.2290  164.9114 C.3     1  UNL1        0.0435
     12 C         140.1253  143.3558  166.1091 C.3     1  UNL1        0.0066
     13 C         140.7902  142.0211  165.9472 C.3     1  UNL1        0.0049
     14 C         141.2243  141.5594  164.5877 C.3     1  UNL1        0.0275
     15 C         141.0209  141.1479  167.1449 C.3     1  UNL1        0.0053
     16 C         139.9490  141.0012  168.1838 C.3     1  UNL1        0.0322
     17 C         140.1798  140.1281  169.3815 C.3     1  UNL1        0.1422
     18 O         141.4826  139.4016  169.5402 O.3     1  UNL1       -0.3538
     19 C         142.5545  139.5483  168.5013 C.3     1  UNL1        0.1422
     20 C         142.3237  140.4215  167.3036 C.3     1  UNL1        0.0322
     21 C         142.6225  137.9718  157.4710 C.3     1  UNL1        0.1152
     22 N         141.9673  139.0946  158.2194 N.am    1  UNL1       -0.2743
     23 C         142.8072  140.0971  158.9538 C.2     1  UNL1        0.2491
     24 O         144.3023  139.9769  158.9398 O.2     1  UNL1       -0.2699
     25 C         140.4722  139.2148  158.2333 C.3     1  UNL1        0.0943
     26 C         139.6610  138.3752  159.1751 C.3     1  UNL1        0.0311
     27 C         139.1965  138.9488  160.4810 C.3     1  UNL1        0.0868
     28 C         139.5283  138.2513  161.7668 C.2     1  UNL1        0.2226
     29 O         140.7999  137.4647  161.8870 O.2     1  UNL1       -0.2751
     30 N         138.5886  138.3405  162.9325 N.am    1  UNL1       -0.3020
     31 H         137.7540  138.8567  162.8536 H       1  UNL1        0.1495
     32 C         138.9203  137.6430  164.2184 C.3     1  UNL1        0.1213
     33 C         139.9873  138.1943  165.1171 C.3     1  UNL1        0.1583
     34 O         141.4335  137.9585  164.7964 O.3     1  UNL1       -0.3802
     35 H         141.6312  137.0118  164.8716 H       1  UNL1        0.2105
@<TRIPOS>BOND
     1    21    22    1
     2    22    25    1
     3    25    26    1
     4    26    27    1
     5    27    28    1
     6    28    29    2
     7    28    30   am
     8    30    32    1
     9    32    33    1
    10    33    34    1
    11    22    23   am
    12    23    24    2
    13    23     1    1
    14     1     2   ar
    15     2     3   ar
    16     3     4   ar
    17     4     5   ar
    18     5     6   ar
    19     5     7   ar
    20     7     8   ar
    21     8     9   ar
    22     9    10    1
    23     8    11    1
    24    11    12    1
    25    12    13    1
    26    13    15    1
    27    15    16    1
    28    16    17    1
    29    17    18    1
    30    18    19    1
    31    19    20    1
    32    13    14    1
    33     6     1   ar
    34    14     7    1
    35     9     4   ar
    36    20    15    1
    37    30    31    1
    38    34    35    1
