@<TRIPOS>MOLECULE
*****
 26 28 0 0 0
SMALL
GASTEIGER

@<TRIPOS>ATOM
      1 C         137.7441  138.3267  166.6067 C.3     1  UNL1        0.0312
      2 C         138.8020  139.2327  166.0499 C.3     1  UNL1        0.1285
      3 N         138.6222  139.8520  164.6956 N.ar    1  UNL1       -0.2908
      4 C         138.4873  139.1113  163.3982 C.ar    1  UNL1        0.1800
      5 N         138.3275  140.1223  162.3017 N.ar    1  UNL1       -0.2195
      6 C         138.3637  141.4878  162.9214 C.ar    1  UNL1        0.1481
      7 C         138.2543  142.8618  162.3296 C.ar    1  UNL1        0.1487
      8 N         138.0721  143.0288  160.8501 N.pl3   1  UNL1       -0.3413
      9 N         138.3270  144.0688  163.2173 N.ar    1  UNL1       -0.2006
     10 C         138.5091  143.9017  164.6968 C.ar    1  UNL1        0.2264
     11 CL        138.5818  145.1086  165.5845 Cl      1  UNL1       -0.0409
     12 N         138.6185  142.5277  165.2886 N.ar    1  UNL1       -0.1976
     13 C         138.5458  141.3208  164.4009 C.ar    1  UNL1        0.1682
     14 H         138.0244  142.2367  160.2675 H       1  UNL1        0.1438
     15 H         138.0003  143.9306  160.4617 H       1  UNL1        0.1438
     16 C         140.0396  139.5194  166.8474 C.ar    1  UNL1        0.0827
     17 C         139.9247  139.9885  168.2676 C.ar    1  UNL1        0.0535
     18 C         141.1623  140.2753  169.0651 C.ar    1  UNL1        0.1416
     19 C         142.5148  140.0929  168.4426 C.ar    1  UNL1        0.0575
     20 C         142.6297  139.6238  167.0225 C.ar    1  UNL1        0.1016
     21 N         141.3920  139.3371  166.2249 N.ar    1  UNL1       -0.2461
     22 O         141.0475  140.7444  170.4853 O.3     1  UNL1       -0.4692
     23 C         140.5653  142.1339  170.7795 C.3     1  UNL1        0.2772
     24 C         141.1460  143.3019  170.0388 C.3     1  UNL1        0.3615
     25 F         140.2849  144.4858  169.7117 F       1  UNL1       -0.1942
     26 F         142.5878  143.2859  169.6253 F       1  UNL1       -0.1942
@<TRIPOS>BOND
     1     2     1    1
     2     2    16    1
     3    16    17   ar
     4    17    18   ar
     5    18    22    1
     6    22    23    1
     7    23    24    1
     8    24    25    1
     9    24    26    1
    10    18    19   ar
    11    19    20   ar
    12    20    21   ar
    13     2     3    1
    14     3     4   ar
    15     4     5   ar
    16     5     6   ar
    17     6     7   ar
    18     7     8    1
    19     7     9   ar
    20     9    10   ar
    21    10    11    1
    22    10    12   ar
    23    12    13   ar
    24    21    16   ar
    25    13     3   ar
    26    13     6   ar
    27     8    14    1
    28     8    15    1
@<TRIPOS>MOLECULE
*****
 26 28 0 0 0
SMALL
GASTEIGER

@<TRIPOS>ATOM
      1 C         141.4634  138.5718  164.9467 C.3     1  UNL1        0.0312
      2 C         142.0013  139.7350  165.7263 C.3     1  UNL1        0.1285
      3 N         142.6748  140.8693  165.0123 N.ar    1  UNL1       -0.2908
      4 C         144.0655  140.8558  164.4503 C.ar    1  UNL1        0.1800
      5 N         144.3259  142.1945  163.8256 N.ar    1  UNL1       -0.2195
      6 C         143.0962  143.0353  164.0015 C.ar    1  UNL1        0.1481
      7 C         142.7738  144.4408  163.5886 C.ar    1  UNL1        0.1487
      8 N         143.7943  145.2598  162.8552 N.pl3   1  UNL1       -0.3413
      9 N         141.4310  145.0274  163.9092 N.ar    1  UNL1       -0.2006
     10 C         140.4105  144.2084  164.6426 C.ar    1  UNL1        0.2264
     11 CL        139.0677  144.7949  164.9631 Cl      1  UNL1       -0.0409
     12 N         140.7329  142.8028  165.0554 N.ar    1  UNL1       -0.1976
     13 C         142.0757  142.2162  164.7349 C.ar    1  UNL1        0.1682
     14 H         144.6756  144.8748  162.6449 H       1  UNL1        0.1438
     15 H         143.5827  146.1823  162.5842 H       1  UNL1        0.1438
     16 C         141.8658  139.7638  167.2198 C.ar    1  UNL1        0.0827
     17 C         140.7222  140.4978  167.8551 C.ar    1  UNL1        0.0535
     18 C         140.5866  140.5267  169.3486 C.ar    1  UNL1        0.1416
     19 C         141.5946  139.8214  170.2071 C.ar    1  UNL1        0.0575
     20 C         142.7381  139.0874  169.5718 C.ar    1  UNL1        0.1016
     21 N         142.8737  139.0586  168.0782 N.ar    1  UNL1       -0.2461
     22 O         139.4431  141.2607  169.9839 O.3     1  UNL1       -0.4692
     23 C         139.6510  142.6402  170.5350 C.3     1  UNL1        0.2772
     24 C         140.2837  143.7006  169.6834 C.3     1  UNL1        0.3615
     25 F         141.1224  144.7703  170.3176 F       1  UNL1       -0.1942
     26 F         140.0778  143.6912  168.1976 F       1  UNL1       -0.1942
@<TRIPOS>BOND
     1     2     1    1
     2     2    16    1
     3    16    17   ar
     4    17    18   ar
     5    18    22    1
     6    22    23    1
     7    23    24    1
     8    24    25    1
     9    24    26    1
    10    18    19   ar
    11    19    20   ar
    12    20    21   ar
    13     2     3    1
    14     3     4   ar
    15     4     5   ar
    16     5     6   ar
    17     6     7   ar
    18     7     8    1
    19     7     9   ar
    20     9    10   ar
    21    10    11    1
    22    10    12   ar
    23    12    13   ar
    24    21    16   ar
    25    13     3   ar
    26    13     6   ar
    27     8    14    1
    28     8    15    1
@<TRIPOS>MOLECULE
*****
 26 28 0 0 0
SMALL
GASTEIGER

@<TRIPOS>ATOM
      1 C         138.5360  145.0174  165.6595 C.3     1  UNL1        0.0312
      2 C         139.2007  143.7861  165.1191 C.3     1  UNL1        0.1285
      3 N         138.6500  143.1110  163.8981 N.ar    1  UNL1       -0.2908
      4 C         138.1156  143.7977  162.6763 C.ar    1  UNL1        0.1800
      5 N         137.6723  142.7417  161.7076 N.ar    1  UNL1       -0.2195
      6 C         137.9326  141.4023  162.3308 C.ar    1  UNL1        0.1481
      7 C         137.6976  140.0044  161.8404 C.ar    1  UNL1        0.1487
      8 N         137.0933  139.7762  160.4866 N.pl3   1  UNL1       -0.3413
      9 N         138.0667  138.8347  162.7038 N.ar    1  UNL1       -0.2006
     10 C         138.6710  139.0629  164.0576 C.ar    1  UNL1        0.2264
     11 CL        139.0401  137.8932  164.9210 Cl      1  UNL1       -0.0409
     12 N         138.9060  140.4609  164.5480 N.ar    1  UNL1       -0.1976
     13 C         138.5369  141.6306  163.6846 C.ar    1  UNL1        0.1682
     14 H         136.8510  140.5439  159.9199 H       1  UNL1        0.1438
     15 H         136.9390  138.8587  160.1647 H       1  UNL1        0.1438
     16 C         140.4162  143.2300  165.7997 C.ar    1  UNL1        0.0827
     17 C         140.3403  142.7963  167.2337 C.ar    1  UNL1        0.0535
     18 C         141.5558  142.2402  167.9143 C.ar    1  UNL1        0.1416
     19 C         142.8473  142.1177  167.1611 C.ar    1  UNL1        0.0575
     20 C         142.9231  142.5514  165.7271 C.ar    1  UNL1        0.1016
     21 N         141.7076  143.1076  165.0465 N.ar    1  UNL1       -0.2461
     22 O         141.4800  141.8065  169.3482 O.3     1  UNL1       -0.4692
     23 C         140.8507  140.4916  169.7018 C.3     1  UNL1        0.2772
     24 C         139.4532  140.1839  169.2520 C.3     1  UNL1        0.3615
     25 F         139.2189  139.5496  167.9129 F       1  UNL1       -0.1942
     26 F         138.2900  140.5105  170.1410 F       1  UNL1       -0.1942
@<TRIPOS>BOND
     1     2     1    1
     2     2    16    1
     3    16    17   ar
     4    17    18   ar
     5    18    22    1
     6    22    23    1
     7    23    24    1
     8    24    25    1
     9    24    26    1
    10    18    19   ar
    11    19    20   ar
    12    20    21   ar
    13     2     3    1
    14     3     4   ar
    15     4     5   ar
    16     5     6   ar
    17     6     7   ar
    18     7     8    1
    19     7     9   ar
    20     9    10   ar
    21    10    11    1
    22    10    12   ar
    23    12    13   ar
    24    21    16   ar
    25    13     3   ar
    26    13     6   ar
    27     8    14    1
    28     8    15    1
@<TRIPOS>MOLECULE
*****
 26 28 0 0 0
SMALL
GASTEIGER

@<TRIPOS>ATOM
      1 C         144.8419  143.7609  165.6354 C.3     1  UNL1        0.0312
      2 C         143.8045  142.9807  164.8837 C.3     1  UNL1        0.1285
      3 N         143.1451  143.5787  163.6764 N.ar    1  UNL1       -0.2908
      4 C         143.7757  143.7631  162.3279 C.ar    1  UNL1        0.1800
      5 N         142.7597  144.3957  161.4238 N.ar    1  UNL1       -0.2195
      6 C         141.5012  144.6022  162.2134 C.ar    1  UNL1        0.1481
      7 C         140.1691  145.1849  161.8446 C.ar    1  UNL1        0.1487
      8 N         139.9308  145.6898  160.4524 N.pl3   1  UNL1       -0.3413
      9 N         139.0751  145.2625  162.8681 N.ar    1  UNL1       -0.2006
     10 C         139.3134  144.7576  164.2603 C.ar    1  UNL1        0.2264
     11 CL        138.2195  144.8352  165.2837 Cl      1  UNL1       -0.0409
     12 N         140.6456  144.1749  164.6290 N.ar    1  UNL1       -0.1976
     13 C         141.7394  144.0973  163.6056 C.ar    1  UNL1        0.1682
     14 H         140.6488  145.6388  159.7807 H       1  UNL1        0.1438
     15 H         139.0565  146.0722  160.2104 H       1  UNL1        0.1438
     16 C         143.4265  141.6024  165.3392 C.ar    1  UNL1        0.0827
     17 C         142.3072  141.4176  166.3206 C.ar    1  UNL1        0.0535
     18 C         141.9292  140.0393  166.7761 C.ar    1  UNL1        0.1416
     19 C         142.6705  138.8459  166.2504 C.ar    1  UNL1        0.0575
     20 C         143.7898  139.0308  165.2692 C.ar    1  UNL1        0.1016
     21 N         144.1678  140.4091  164.8136 N.ar    1  UNL1       -0.2461
     22 O         140.8098  139.8544  167.7574 O.3     1  UNL1       -0.4692
     23 C         141.0906  139.8881  169.2305 C.3     1  UNL1        0.2772
     24 C         142.4638  139.5642  169.7399 C.3     1  UNL1        0.3615
     25 F         143.4813  140.6548  169.8989 F       1  UNL1       -0.1942
     26 F         142.8194  138.1497  170.0903 F       1  UNL1       -0.1942
@<TRIPOS>BOND
     1     2     1    1
     2     2    16    1
     3    16    17   ar
     4    17    18   ar
     5    18    22    1
     6    22    23    1
     7    23    24    1
     8    24    25    1
     9    24    26    1
    10    18    19   ar
    11    19    20   ar
    12    20    21   ar
    13     2     3    1
    14     3     4   ar
    15     4     5   ar
    16     5     6   ar
    17     6     7   ar
    18     7     8    1
    19     7     9   ar
    20     9    10   ar
    21    10    11    1
    22    10    12   ar
    23    12    13   ar
    24    21    16   ar
    25    13     3   ar
    26    13     6   ar
    27     8    14    1
    28     8    15    1
@<TRIPOS>MOLECULE
*****
 26 28 0 0 0
SMALL
GASTEIGER

@<TRIPOS>ATOM
      1 C         140.9363  137.2997  164.2823 C.3     1  UNL1        0.0312
      2 C         139.8225  138.2966  164.4072 C.3     1  UNL1        0.1285
      3 N         139.3296  138.7045  165.7639 N.ar    1  UNL1       -0.2908
      4 C         138.0649  138.2356  166.4202 C.ar    1  UNL1        0.1800
      5 N         137.9686  138.8942  167.7644 N.ar    1  UNL1       -0.2195
      6 C         139.1738  139.7700  167.9390 C.ar    1  UNL1        0.1481
      7 C         139.6139  140.6592  169.0640 C.ar    1  UNL1        0.1487
      8 N         138.7728  140.7764  170.3004 N.pl3   1  UNL1       -0.3413
      9 N         140.8953  141.4311  168.9526 N.ar    1  UNL1       -0.2006
     10 C         141.7364  141.3138  167.7162 C.ar    1  UNL1        0.2264
     11 CL        143.0177  142.0857  167.6048 Cl      1  UNL1       -0.0409
     12 N         141.2963  140.4247  166.5912 N.ar    1  UNL1       -0.1976
     13 C         140.0150  139.6528  166.7026 C.ar    1  UNL1        0.1682
     14 H         137.9318  140.2698  170.3735 H       1  UNL1        0.1438
     15 H         139.0616  141.3600  171.0388 H       1  UNL1        0.1438
     16 C         139.2016  138.8857  163.1754 C.ar    1  UNL1        0.0827
     17 C         138.6038  140.2607  163.2210 C.ar    1  UNL1        0.0535
     18 C         137.9829  140.8498  161.9891 C.ar    1  UNL1        0.1416
     19 C         137.9598  140.0639  160.7116 C.ar    1  UNL1        0.0575
     20 C         138.5576  138.6889  160.6661 C.ar    1  UNL1        0.1016
     21 N         139.1785  138.0999  161.8979 N.ar    1  UNL1       -0.2461
     22 O         137.3851  142.2247  162.0347 O.3     1  UNL1       -0.4692
     23 C         138.2251  143.3942  162.4551 C.3     1  UNL1        0.2772
     24 C         138.1391  143.9129  163.8599 C.3     1  UNL1        0.3615
     25 F         137.3363  143.1694  164.8861 F       1  UNL1       -0.1942
     26 F         138.8557  145.1751  164.2386 F       1  UNL1       -0.1942
@<TRIPOS>BOND
     1     2     1    1
     2     2    16    1
     3    16    17   ar
     4    17    18   ar
     5    18    22    1
     6    22    23    1
     7    23    24    1
     8    24    25    1
     9    24    26    1
    10    18    19   ar
    11    19    20   ar
    12    20    21   ar
    13     2     3    1
    14     3     4   ar
    15     4     5   ar
    16     5     6   ar
    17     6     7   ar
    18     7     8    1
    19     7     9   ar
    20     9    10   ar
    21    10    11    1
    22    10    12   ar
    23    12    13   ar
    24    21    16   ar
    25    13     3   ar
    26    13     6   ar
    27     8    14    1
    28     8    15    1
@<TRIPOS>MOLECULE
*****
 26 28 0 0 0
SMALL
GASTEIGER

@<TRIPOS>ATOM
      1 C         143.8469  140.5419  165.0800 C.3     1  UNL1        0.0312
      2 C         143.0580  141.6402  165.7291 C.3     1  UNL1        0.1285
      3 N         142.5162  141.4559  167.1156 N.ar    1  UNL1       -0.2908
      4 C         143.1682  141.9168  168.3854 C.ar    1  UNL1        0.1800
      5 N         142.2822  141.5241  169.5303 N.ar    1  UNL1       -0.2195
      6 C         141.0826  140.8206  168.9681 C.ar    1  UNL1        0.1481
      7 C         139.8773  140.2128  169.6223 C.ar    1  UNL1        0.1487
      8 N         139.7327  140.2550  171.1147 N.pl3   1  UNL1       -0.3413
      9 N         138.8166  139.5630  168.7840 N.ar    1  UNL1       -0.2006
     10 C         138.9613  139.5208  167.2916 C.ar    1  UNL1        0.2264
     11 CL        137.9006  138.8710  166.4533 Cl      1  UNL1       -0.0409
     12 N         140.1666  140.1286  166.6374 N.ar    1  UNL1       -0.1976
     13 C         141.2272  140.7784  167.4757 C.ar    1  UNL1        0.1682
     14 H         140.4289  140.6815  171.6649 H       1  UNL1        0.1438
     15 H         138.9416  139.8561  171.5440 H       1  UNL1        0.1438
     16 C         142.8108  142.9228  164.9916 C.ar    1  UNL1        0.0827
     17 C         141.4222  143.2779  164.5491 C.ar    1  UNL1        0.0535
     18 C         141.1751  144.5604  163.8116 C.ar    1  UNL1        0.1416
     19 C         142.3165  145.4880  163.5166 C.ar    1  UNL1        0.0575
     20 C         143.7051  145.1328  163.9591 C.ar    1  UNL1        0.1016
     21 N         143.9522  143.8503  164.6966 N.ar    1  UNL1       -0.2461
     22 O         139.7866  144.9156  163.3691 O.3     1  UNL1       -0.4692
     23 C         138.8234  143.8334  162.9805 C.3     1  UNL1        0.2772
     24 C         137.7367  143.4206  163.9284 C.3     1  UNL1        0.3615
     25 F         137.0407  142.1046  163.7442 F       1  UNL1       -0.1942
     26 F         137.3460  144.3237  165.0606 F       1  UNL1       -0.1942
@<TRIPOS>BOND
     1     2     1    1
     2     2    16    1
     3    16    17   ar
     4    17    18   ar
     5    18    22    1
     6    22    23    1
     7    23    24    1
     8    24    25    1
     9    24    26    1
    10    18    19   ar
    11    19    20   ar
    12    20    21   ar
    13     2     3    1
    14     3     4   ar
    15     4     5   ar
    16     5     6   ar
    17     6     7   ar
    18     7     8    1
    19     7     9   ar
    20     9    10   ar
    21    10    11    1
    22    10    12   ar
    23    12    13   ar
    24    21    16   ar
    25    13     3   ar
    26    13     6   ar
    27     8    14    1
    28     8    15    1
@<TRIPOS>MOLECULE
*****
 26 28 0 0 0
SMALL
GASTEIGER

@<TRIPOS>ATOM
      1 C         143.4365  139.2683  165.5449 C.3     1  UNL1        0.0312
      2 C         142.2174  140.0136  165.0886 C.3     1  UNL1        0.1285
      3 N         142.3416  141.0934  164.0549 N.ar    1  UNL1       -0.2908
      4 C         143.2725  141.0851  162.8787 C.ar    1  UNL1        0.1800
      5 N         143.0629  142.3577  162.1128 N.ar    1  UNL1       -0.2195
      6 C         142.0026  143.1525  162.8156 C.ar    1  UNL1        0.1481
      7 C         141.3854  144.4867  162.5177 C.ar    1  UNL1        0.1487
      8 N         141.8312  145.2681  161.3174 N.pl3   1  UNL1       -0.3413
      9 N         140.3223  145.0397  163.4201 N.ar    1  UNL1       -0.2006
     10 C         139.8765  144.2583  164.6204 C.ar    1  UNL1        0.2264
     11 CL        138.8135  144.8112  165.5227 Cl      1  UNL1       -0.0409
     12 N         140.4938  142.9240  164.9183 N.ar    1  UNL1       -0.1976
     13 C         141.5568  142.3711  164.0159 C.ar    1  UNL1        0.1682
     14 H         142.5289  144.9052  160.7251 H       1  UNL1        0.1438
     15 H         141.4261  146.1438  161.1218 H       1  UNL1        0.1438
     16 C         140.8740  139.6790  165.6660 C.ar    1  UNL1        0.0827
     17 C         140.5760  139.9923  167.1024 C.ar    1  UNL1        0.0535
     18 C         139.2326  139.6578  167.6798 C.ar    1  UNL1        0.1416
     19 C         138.1872  139.0100  166.8209 C.ar    1  UNL1        0.0575
     20 C         138.4853  138.6967  165.3846 C.ar    1  UNL1        0.1016
     21 N         139.8287  139.0313  164.8072 N.ar    1  UNL1       -0.2461
     22 O         138.9345  139.9711  169.1161 O.3     1  UNL1       -0.4692
     23 C         139.9011  140.7873  169.9219 C.3     1  UNL1        0.2772
     24 C         139.8354  142.2853  169.8794 C.3     1  UNL1        0.3615
     25 F         140.2199  143.0176  168.6280 F       1  UNL1       -0.1942
     26 F         139.3854  143.0509  171.0883 F       1  UNL1       -0.1942
@<TRIPOS>BOND
     1     2     1    1
     2     2    16    1
     3    16    17   ar
     4    17    18   ar
     5    18    22    1
     6    22    23    1
     7    23    24    1
     8    24    25    1
     9    24    26    1
    10    18    19   ar
    11    19    20   ar
    12    20    21   ar
    13     2     3    1
    14     3     4   ar
    15     4     5   ar
    16     5     6   ar
    17     6     7   ar
    18     7     8    1
    19     7     9   ar
    20     9    10   ar
    21    10    11    1
    22    10    12   ar
    23    12    13   ar
    24    21    16   ar
    25    13     3   ar
    26    13     6   ar
    27     8    14    1
    28     8    15    1
@<TRIPOS>MOLECULE
*****
 26 28 0 0 0
SMALL
GASTEIGER

@<TRIPOS>ATOM
      1 C         144.3351  140.4133  163.6246 C.3     1  UNL1        0.0312
      2 C         143.5342  141.3831  164.4420 C.3     1  UNL1        0.1285
      3 N         143.0317  142.6523  163.8202 N.ar    1  UNL1       -0.2908
      4 C         143.8700  143.6906  163.1353 C.ar    1  UNL1        0.1800
      5 N         142.9590  144.7860  162.6659 N.ar    1  UNL1       -0.2195
      6 C         141.5578  144.4246  163.0608 C.ar    1  UNL1        0.1481
      7 C         140.2467  145.1260  162.8629 C.ar    1  UNL1        0.1487
      8 N         140.2018  146.4448  162.1495 N.pl3   1  UNL1       -0.3413
      9 N         138.9805  144.5087  163.3785 N.ar    1  UNL1       -0.2006
     10 C         139.0255  143.1900  164.0919 C.ar    1  UNL1        0.2264
     11 CL        137.7593  142.5726  164.6074 Cl      1  UNL1       -0.0409
     12 N         140.3366  142.4886  164.2897 N.ar    1  UNL1       -0.1976
     13 C         141.6027  143.1059  163.7742 C.ar    1  UNL1        0.1682
     14 H         141.0328  146.8499  161.8112 H       1  UNL1        0.1438
     15 H         139.3413  146.9051  162.0197 H       1  UNL1        0.1438
     16 C         143.2358  141.0836  165.8812 C.ar    1  UNL1        0.0827
     17 C         143.2594  142.1869  166.8973 C.ar    1  UNL1        0.0535
     18 C         142.9610  141.8874  168.3365 C.ar    1  UNL1        0.1416
     19 C         142.6390  140.4848  168.7597 C.ar    1  UNL1        0.0575
     20 C         142.6155  139.3816  167.7436 C.ar    1  UNL1        0.1016
     21 N         142.9139  139.6811  166.3044 N.ar    1  UNL1       -0.2461
     22 O         142.9845  142.9906  169.3526 O.3     1  UNL1       -0.4692
     23 C         141.8335  143.1634  170.2988 C.3     1  UNL1        0.2772
     24 C         140.4314  143.2304  169.7699 C.3     1  UNL1        0.3615
     25 F         140.1843  143.6498  168.3511 F       1  UNL1       -0.1942
     26 F         139.2766  142.8780  170.6599 F       1  UNL1       -0.1942
@<TRIPOS>BOND
     1     2     1    1
     2     2    16    1
     3    16    17   ar
     4    17    18   ar
     5    18    22    1
     6    22    23    1
     7    23    24    1
     8    24    25    1
     9    24    26    1
    10    18    19   ar
    11    19    20   ar
    12    20    21   ar
    13     2     3    1
    14     3     4   ar
    15     4     5   ar
    16     5     6   ar
    17     6     7   ar
    18     7     8    1
    19     7     9   ar
    20     9    10   ar
    21    10    11    1
    22    10    12   ar
    23    12    13   ar
    24    21    16   ar
    25    13     3   ar
    26    13     6   ar
    27     8    14    1
    28     8    15    1
@<TRIPOS>MOLECULE
*****
 26 28 0 0 0
SMALL
GASTEIGER

@<TRIPOS>ATOM
      1 C         138.4669  139.4296  165.0712 C.3     1  UNL1        0.0312
      2 C         139.4266  140.4900  165.5233 C.3     1  UNL1        0.1285
      3 N         139.4047  141.8450  164.8802 N.ar    1  UNL1       -0.2908
      4 C         138.1788  142.6138  164.4855 C.ar    1  UNL1        0.1800
      5 N         138.6213  143.9130  163.8803 N.ar    1  UNL1       -0.2195
      6 C         140.1208  143.9470  163.9010 C.ar    1  UNL1        0.1481
      7 C         141.1079  144.9767  163.4369 C.ar    1  UNL1        0.1487
      8 N         140.6237  146.2549  162.8189 N.pl3   1  UNL1       -0.3413
      9 N         142.5792  144.7283  163.5908 N.ar    1  UNL1       -0.2006
     10 C         143.0633  143.4502  164.2089 C.ar    1  UNL1        0.2264
     11 CL        144.5346  143.2017  164.3628 Cl      1  UNL1       -0.0409
     12 N         142.0762  142.4205  164.6729 N.ar    1  UNL1       -0.1976
     13 C         140.6050  142.6689  164.5190 C.ar    1  UNL1        0.1682
     14 H         139.6581  146.4179  162.7178 H       1  UNL1        0.1438
     15 H         141.2716  146.9307  162.5143 H       1  UNL1        0.1438
     16 C         140.4083  140.1954  166.6186 C.ar    1  UNL1        0.0827
     17 C         140.1020  140.6020  168.0296 C.ar    1  UNL1        0.0535
     18 C         141.0836  140.3074  169.1248 C.ar    1  UNL1        0.1416
     19 C         142.3716  139.6062  168.8091 C.ar    1  UNL1        0.0575
     20 C         142.6778  139.1997  167.3981 C.ar    1  UNL1        0.1016
     21 N         141.6962  139.4943  166.3029 N.ar    1  UNL1       -0.2461
     22 O         140.7774  140.7139  170.5358 O.3     1  UNL1       -0.4692
     23 C         141.4086  141.9451  171.1154 C.3     1  UNL1        0.2772
     24 C         141.8918  143.0380  170.2087 C.3     1  UNL1        0.3615
     25 F         143.2401  142.9329  169.5598 F       1  UNL1       -0.1942
     26 F         141.0267  144.2360  169.9510 F       1  UNL1       -0.1942
@<TRIPOS>BOND
     1     2     1    1
     2     2    16    1
     3    16    17   ar
     4    17    18   ar
     5    18    22    1
     6    22    23    1
     7    23    24    1
     8    24    25    1
     9    24    26    1
    10    18    19   ar
    11    19    20   ar
    12    20    21   ar
    13     2     3    1
    14     3     4   ar
    15     4     5   ar
    16     5     6   ar
    17     6     7   ar
    18     7     8    1
    19     7     9   ar
    20     9    10   ar
    21    10    11    1
    22    10    12   ar
    23    12    13   ar
    24    21    16   ar
    25    13     3   ar
    26    13     6   ar
    27     8    14    1
    28     8    15    1
