@<TRIPOS>MOLECULE
*****
 39 44 0 0 0
SMALL
GASTEIGER

@<TRIPOS>ATOM
      1 C         141.7858  141.2964  166.2343 C.3     1  UNL1        0.0414
      2 C         143.2689  141.2480  166.0144 C.3     1  UNL1        0.0741
      3 C         143.3037  141.3804  165.9375 C.3     1  UNL1        0.0893
      4 C         143.8687  140.5090  164.8551 C.3     1  UNL1        0.0386
      5 C         144.4655  141.1302  163.6271 C.3     1  UNL1        0.0594
      6 C         144.9379  142.1427  162.6263 C.3     1  UNL1        0.0174
      7 C         144.6302  143.5076  163.1672 C.3     1  UNL1        0.0174
      8 C         143.9675  143.3386  164.5022 C.3     1  UNL1        0.0594
      9 C         143.3356  142.8729  165.7919 C.3     1  UNL1        0.0386
     10 N         143.8657  141.8692  164.7865 N.3     1  UNL1       -0.2750
     11 C         143.5387  138.2441  166.8082 C.3     1  UNL1        0.0718
     12 C         142.8150  139.3176  167.5657 C.ar    1  UNL1        0.1207
     13 N         142.0721  139.1380  168.8564 N.ar    1  UNL1       -0.2309
     14 C         141.5050  140.4686  169.2539 C.ar    1  UNL1        0.0983
     15 C         140.6821  140.8972  170.4325 C.ar    1  UNL1        0.0206
     16 C         140.2515  142.3279  170.5659 C.ar    1  UNL1        0.0016
     17 C         140.6438  143.3298  169.5209 C.ar    1  UNL1        0.0016
     18 C         141.4668  142.9011  168.3423 C.ar    1  UNL1        0.0188
     19 C         141.8974  141.4705  168.2089 C.ar    1  UNL1        0.0785
     20 N         142.7069  140.7592  167.1655 N.ar    1  UNL1       -0.3167
     21 C         140.8522  140.8354  165.1548 C.3     1  UNL1        0.0955
     22 C         139.9442  139.6662  165.3971 C.ar    1  UNL1       -0.0022
     23 C         140.0194  138.4612  164.5071 C.ar    1  UNL1       -0.0025
     24 C         139.1115  137.2920  164.7494 C.ar    1  UNL1        0.0020
     25 C         138.1284  137.3279  165.8818 C.ar    1  UNL1        0.0296
     26 C         138.0532  138.5330  166.7719 C.ar    1  UNL1        0.1399
     27 F         137.0701  138.5688  167.9042 F       1  UNL1       -0.2042
     28 C         138.9611  139.7021  166.5296 C.ar    1  UNL1        0.0270
     29 N         140.8263  141.5436  163.8326 N.am    1  UNL1       -0.3022
     30 C         140.3871  142.9759  163.7575 C.2     1  UNL1        0.2225
     31 O         139.9737  143.7000  165.0044 O.2     1  UNL1       -0.2751
     32 H         141.0976  141.0683  163.0142 H       1  UNL1        0.1497
     33 C         140.3612  143.6840  162.4354 C.3     1  UNL1        0.0869
     34 C         140.6545  142.9278  161.1737 C.3     1  UNL1        0.0736
     35 C         140.6287  143.6361  159.8516 C.3     1  UNL1        0.2560
     36 S         140.3095  145.1005  159.7913 S.O     1  UNL1        0.0304
     37 O         140.2836  145.8087  158.4693 O.co2   1  UNL1       -0.6813
     38 C         140.0162  145.8567  161.0532 C.3     1  UNL1        0.2560
     39 C         140.0420  145.1484  162.3752 C.3     1  UNL1        0.0736
@<TRIPOS>UNITY_ATOM_ATTR
36 1
charge 1
37 1
charge -1
@<TRIPOS>BOND
     1    11    12    1
     2    12    13   ar
     3    13    14   ar
     4    14    15   ar
     5    15    16   ar
     6    16    17   ar
     7    17    18   ar
     8    18    19   ar
     9    19    20   ar
    10    20     3    1
    11     3     4    1
    12     5     4    1
    13     5     6    1
    14     6     7    1
    15     8     7    1
    16     8     9    1
    17     8    10    1
    18    10     2    1
    19     2     1    1
    20    21     1    1
    21    21    29    1
    22    29    30   am
    23    30    31    2
    24    30    33    1
    25    33    34    1
    26    34    35    1
    27    35    36    1
    28    36    37    2
    29    36    38    1
    30    38    39    1
    31    21    22    1
    32    22    23   ar
    33    23    24   ar
    34    24    25   ar
    35    25    26   ar
    36    26    27    1
    37    26    28   ar
    38    20    12   ar
    39     9     3    1
    40    39    33    1
    41    28    22   ar
    42    19    14   ar
    43    10     5    1
    44    29    32    1
@<TRIPOS>MOLECULE
*****
 39 44 0 0 0
SMALL
GASTEIGER

@<TRIPOS>ATOM
      1 C         142.0818  142.8065  163.3390 C.3     1  UNL1        0.0414
      2 C         141.0037  143.6830  162.7736 C.3     1  UNL1        0.0741
      3 C         140.9378  143.7510  162.8988 C.3     1  UNL1        0.0893
      4 C         139.6375  143.1661  162.4327 C.3     1  UNL1        0.0386
      5 C         138.3817  143.4105  163.2159 C.3     1  UNL1        0.0594
      6 C         137.4273  143.8951  164.2667 C.3     1  UNL1        0.0174
      7 C         138.2037  144.7115  165.2570 C.3     1  UNL1        0.0174
      8 C         139.6380  144.7314  164.8182 C.3     1  UNL1        0.0594
      9 C         140.9822  144.5802  164.1479 C.3     1  UNL1        0.0386
     10 N         139.7480  143.9273  163.5567 N.3     1  UNL1       -0.2750
     11 C         143.8618  145.0684  163.5024 C.3     1  UNL1        0.0718
     12 C         143.5376  144.1122  162.3931 C.ar    1  UNL1        0.1207
     13 N         144.5004  143.5937  161.3664 N.ar    1  UNL1       -0.2309
     14 C         143.7515  142.6677  160.4545 C.ar    1  UNL1        0.0983
     15 C         144.1836  141.8665  159.2623 C.ar    1  UNL1        0.0206
     16 C         143.1900  141.0116  158.5331 C.ar    1  UNL1        0.0016
     17 C         141.7642  140.9578  158.9962 C.ar    1  UNL1        0.0016
     18 C         141.3321  141.7590  160.1883 C.ar    1  UNL1        0.0188
     19 C         142.3258  142.6139  160.9175 C.ar    1  UNL1        0.0785
     20 N         142.1936  143.5067  162.1156 N.ar    1  UNL1       -0.3167
     21 C         141.7201  141.5329  164.0439 C.3     1  UNL1        0.0955
     22 C         141.7950  140.2244  163.3142 C.ar    1  UNL1       -0.0022
     23 C         143.1297  139.6362  162.9643 C.ar    1  UNL1       -0.0025
     24 C         143.2046  138.3278  162.2346 C.ar    1  UNL1        0.0020
     25 C         141.9447  137.6077  161.8549 C.ar    1  UNL1        0.0296
     26 C         140.6100  138.1959  162.2049 C.ar    1  UNL1        0.1399
     27 F         139.3502  137.4757  161.8251 F       1  UNL1       -0.2042
     28 C         140.5351  139.5043  162.9345 C.ar    1  UNL1        0.0270
     29 N         141.2836  141.5676  165.4787 N.am    1  UNL1       -0.3022
     30 C         142.2465  141.9974  166.5454 C.2     1  UNL1        0.2225
     31 O         143.6460  142.3926  166.1775 O.2     1  UNL1       -0.2751
     32 H         140.3650  141.3083  165.7201 H       1  UNL1        0.1497
     33 C         141.8100  142.0322  167.9801 C.3     1  UNL1        0.0869
     34 C         140.6082  142.8361  168.3791 C.3     1  UNL1        0.0736
     35 C         140.1718  142.8708  169.8139 C.3     1  UNL1        0.2560
     36 S         140.9371  142.1015  170.8495 S.O     1  UNL1        0.0304
     37 O         140.5006  142.1362  172.2841 O.co2   1  UNL1       -0.6813
     38 C         142.1389  141.2975  170.4503 C.3     1  UNL1        0.2560
     39 C         142.5754  141.2629  169.0157 C.3     1  UNL1        0.0736
@<TRIPOS>UNITY_ATOM_ATTR
36 1
charge 1
37 1
charge -1
@<TRIPOS>BOND
     1    11    12    1
     2    12    13   ar
     3    13    14   ar
     4    14    15   ar
     5    15    16   ar
     6    16    17   ar
     7    17    18   ar
     8    18    19   ar
     9    19    20   ar
    10    20     3    1
    11     3     4    1
    12     5     4    1
    13     5     6    1
    14     6     7    1
    15     8     7    1
    16     8     9    1
    17     8    10    1
    18    10     2    1
    19     2     1    1
    20    21     1    1
    21    21    29    1
    22    29    30   am
    23    30    31    2
    24    30    33    1
    25    33    34    1
    26    34    35    1
    27    35    36    1
    28    36    37    2
    29    36    38    1
    30    38    39    1
    31    21    22    1
    32    22    23   ar
    33    23    24   ar
    34    24    25   ar
    35    25    26   ar
    36    26    27    1
    37    26    28   ar
    38    20    12   ar
    39     9     3    1
    40    39    33    1
    41    28    22   ar
    42    19    14   ar
    43    10     5    1
    44    29    32    1
@<TRIPOS>MOLECULE
*****
 39 44 0 0 0
SMALL
GASTEIGER

@<TRIPOS>ATOM
      1 C         139.6868  141.0249  162.8497 C.3     1  UNL1        0.0414
      2 C         138.4187  140.4943  163.4503 C.3     1  UNL1        0.0741
      3 C         138.4667  140.3498  163.4886 C.3     1  UNL1        0.0893
      4 C         137.8446  140.5859  164.8331 C.3     1  UNL1        0.0386
      5 C         137.9024  139.5174  165.8843 C.3     1  UNL1        0.0594
      6 C         138.1896  138.2264  166.5919 C.3     1  UNL1        0.0174
      7 C         138.9413  137.3369  165.6464 C.3     1  UNL1        0.0174
      8 C         139.1186  138.0781  164.3545 C.3     1  UNL1        0.0594
      9 C         139.1464  139.0453  163.1955 C.3     1  UNL1        0.0386
     10 N         138.4765  139.4259  164.5015 N.3     1  UNL1       -0.2750
     11 C         137.8971  143.5211  164.0063 C.3     1  UNL1        0.0718
     12 C         138.1471  142.8759  162.6754 C.ar    1  UNL1        0.1207
     13 N         138.1792  143.5752  161.3487 N.ar    1  UNL1       -0.2309
     14 C         138.4608  142.5497  160.2909 C.ar    1  UNL1        0.0983
     15 C         138.6063  142.6575  158.8019 C.ar    1  UNL1        0.0206
     16 C         138.8938  141.4323  157.9857 C.ar    1  UNL1        0.0016
     17 C         139.0357  140.0992  158.6586 C.ar    1  UNL1        0.0016
     18 C         138.8903  139.9914  160.1476 C.ar    1  UNL1        0.0188
     19 C         138.6028  141.2166  160.9637 C.ar    1  UNL1        0.0785
     20 N         138.4089  141.4183  162.4374 N.ar    1  UNL1       -0.3167
     21 C         140.8493  141.3673  163.7334 C.3     1  UNL1        0.0955
     22 C         142.2425  141.3577  163.1775 C.ar    1  UNL1       -0.0022
     23 C         143.1926  142.4681  163.5157 C.ar    1  UNL1       -0.0025
     24 C         144.5857  142.4585  162.9598 C.ar    1  UNL1        0.0020
     25 C         145.0287  141.3385  162.0657 C.ar    1  UNL1        0.0296
     26 C         144.0786  140.2281  161.7275 C.ar    1  UNL1        0.1399
     27 F         144.5217  139.1081  160.8334 F       1  UNL1       -0.2042
     28 C         142.6855  140.2377  162.2834 C.ar    1  UNL1        0.0270
     29 N         140.6188  141.7194  165.1733 N.am    1  UNL1       -0.3022
     30 C         141.1551  140.8323  166.2574 C.2     1  UNL1        0.2225
     31 O         141.9219  139.5932  165.9019 O.2     1  UNL1       -0.2751
     32 H         140.1155  142.5328  165.4067 H       1  UNL1        0.1497
     33 C         140.9246  141.1844  167.6972 C.3     1  UNL1        0.0869
     34 C         140.7662  140.0977  168.7189 C.3     1  UNL1        0.0736
     35 C         140.5357  140.4499  170.1587 C.3     1  UNL1        0.2560
     36 S         140.4637  141.8886  170.5768 S.O     1  UNL1        0.0304
     37 O         140.2332  142.2407  172.0165 O.co2   1  UNL1       -0.6813
     38 C         140.6221  142.9753  169.5549 C.3     1  UNL1        0.2560
     39 C         140.8526  142.6232  168.1152 C.3     1  UNL1        0.0736
@<TRIPOS>UNITY_ATOM_ATTR
36 1
charge 1
37 1
charge -1
@<TRIPOS>BOND
     1    11    12    1
     2    12    13   ar
     3    13    14   ar
     4    14    15   ar
     5    15    16   ar
     6    16    17   ar
     7    17    18   ar
     8    18    19   ar
     9    19    20   ar
    10    20     3    1
    11     3     4    1
    12     5     4    1
    13     5     6    1
    14     6     7    1
    15     8     7    1
    16     8     9    1
    17     8    10    1
    18    10     2    1
    19     2     1    1
    20    21     1    1
    21    21    29    1
    22    29    30   am
    23    30    31    2
    24    30    33    1
    25    33    34    1
    26    34    35    1
    27    35    36    1
    28    36    37    2
    29    36    38    1
    30    38    39    1
    31    21    22    1
    32    22    23   ar
    33    23    24   ar
    34    24    25   ar
    35    25    26   ar
    36    26    27    1
    37    26    28   ar
    38    20    12   ar
    39     9     3    1
    40    39    33    1
    41    28    22   ar
    42    19    14   ar
    43    10     5    1
    44    29    32    1
@<TRIPOS>MOLECULE
*****
 39 44 0 0 0
SMALL
GASTEIGER

@<TRIPOS>ATOM
      1 C         139.6592  140.9039  162.7574 C.3     1  UNL1        0.0414
      2 C         138.3919  140.4613  163.4269 C.3     1  UNL1        0.0741
      3 C         138.4372  140.3167  163.4679 C.3     1  UNL1        0.0893
      4 C         137.8304  140.5933  164.8116 C.3     1  UNL1        0.0386
      5 C         137.8752  139.5461  165.8846 C.3     1  UNL1        0.0594
      6 C         138.1422  138.2646  166.6171 C.3     1  UNL1        0.0174
      7 C         138.8686  137.3407  165.6851 C.3     1  UNL1        0.0174
      8 C         139.0506  138.0511  164.3766 C.3     1  UNL1        0.0594
      9 C         139.0887  138.9930  163.1973 C.3     1  UNL1        0.0386
     10 N         138.4366  139.4142  164.4999 N.3     1  UNL1       -0.2750
     11 C         137.8661  143.4984  163.9154 C.3     1  UNL1        0.0718
     12 C         138.1300  142.8264  162.6005 C.ar    1  UNL1        0.1207
     13 N         138.1777  143.4988  161.2605 N.ar    1  UNL1       -0.2309
     14 C         138.4697  142.4519  160.2267 C.ar    1  UNL1        0.0983
     15 C         138.6318  142.5296  158.7375 C.ar    1  UNL1        0.0206
     16 C         138.9267  141.2879  157.9494 C.ar    1  UNL1        0.0016
     17 C         139.0595  139.9685  158.6505 C.ar    1  UNL1        0.0016
     18 C         138.8973  139.8908  160.1396 C.ar    1  UNL1        0.0188
     19 C         138.6024  141.1325  160.9277 C.ar    1  UNL1        0.0785
     20 N         138.3925  141.3639  162.3948 N.ar    1  UNL1       -0.3167
     21 C         140.8044  141.4130  163.5815 C.3     1  UNL1        0.0955
     22 C         142.1561  141.5936  162.9566 C.ar    1  UNL1       -0.0022
     23 C         142.8437  140.4293  162.3073 C.ar    1  UNL1       -0.0025
     24 C         144.1954  140.6098  161.6824 C.ar    1  UNL1        0.0020
     25 C         144.8594  141.9546  161.7070 C.ar    1  UNL1        0.0296
     26 C         144.1718  143.1189  162.3564 C.ar    1  UNL1        0.1399
     27 F         144.8359  144.4637  162.3809 F       1  UNL1       -0.2042
     28 C         142.8202  142.9384  162.9812 C.ar    1  UNL1        0.0270
     29 N         140.5980  141.7417  165.0305 N.am    1  UNL1       -0.3022
     30 C         141.1590  140.8413  166.0910 C.2     1  UNL1        0.2225
     31 O         141.9264  139.6124  165.7026 O.2     1  UNL1       -0.2751
     32 H         140.0944  142.5482  165.2854 H       1  UNL1        0.1497
     33 C         140.9527  141.1699  167.5399 C.3     1  UNL1        0.0869
     34 C         140.7706  142.5963  167.9669 C.3     1  UNL1        0.0736
     35 C         140.5643  142.9248  169.4160 C.3     1  UNL1        0.2560
     36 S         140.5400  141.8271  170.4379 S.O     1  UNL1        0.0304
     37 O         140.3336  142.1557  171.8868 O.co2   1  UNL1       -0.6813
     38 C         140.7221  140.4007  170.0108 C.3     1  UNL1        0.2560
     39 C         140.9284  140.0722  168.5618 C.3     1  UNL1        0.0736
@<TRIPOS>UNITY_ATOM_ATTR
36 1
charge 1
37 1
charge -1
@<TRIPOS>BOND
     1    11    12    1
     2    12    13   ar
     3    13    14   ar
     4    14    15   ar
     5    15    16   ar
     6    16    17   ar
     7    17    18   ar
     8    18    19   ar
     9    19    20   ar
    10    20     3    1
    11     3     4    1
    12     5     4    1
    13     5     6    1
    14     6     7    1
    15     8     7    1
    16     8     9    1
    17     8    10    1
    18    10     2    1
    19     2     1    1
    20    21     1    1
    21    21    29    1
    22    29    30   am
    23    30    31    2
    24    30    33    1
    25    33    34    1
    26    34    35    1
    27    35    36    1
    28    36    37    2
    29    36    38    1
    30    38    39    1
    31    21    22    1
    32    22    23   ar
    33    23    24   ar
    34    24    25   ar
    35    25    26   ar
    36    26    27    1
    37    26    28   ar
    38    20    12   ar
    39     9     3    1
    40    39    33    1
    41    28    22   ar
    42    19    14   ar
    43    10     5    1
    44    29    32    1
@<TRIPOS>MOLECULE
*****
 39 44 0 0 0
SMALL
GASTEIGER

@<TRIPOS>ATOM
      1 C         139.5538  141.2202  162.7778 C.3     1  UNL1        0.0414
      2 C         138.4602  140.2094  162.9588 C.3     1  UNL1        0.0741
      3 C         138.4318  140.2025  163.1130 C.3     1  UNL1        0.0893
      4 C         138.7939  138.7490  163.0338 C.3     1  UNL1        0.0386
      5 C         138.7558  137.8982  164.2686 C.3     1  UNL1        0.0594
      6 C         138.5836  137.4558  165.6915 C.3     1  UNL1        0.0174
      7 C         138.1434  138.6429  166.4959 C.3     1  UNL1        0.0174
      8 C         138.0436  139.8190  165.5701 C.3     1  UNL1        0.0594
      9 C         138.0315  140.8051  164.4270 C.3     1  UNL1        0.0386
     10 N         138.4221  139.3587  164.1935 N.3     1  UNL1       -0.2750
     11 C         137.6436  143.3644  162.9371 C.3     1  UNL1        0.0718
     12 C         138.1076  142.5066  161.7974 C.ar    1  UNL1        0.1207
     13 N         138.2908  142.9516  160.3767 N.ar    1  UNL1       -0.2309
     14 C         138.7663  141.7733  159.5795 C.ar    1  UNL1        0.0983
     15 C         139.1128  141.6171  158.1285 C.ar    1  UNL1        0.0206
     16 C         139.5700  140.2877  157.6055 C.ar    1  UNL1        0.0016
     17 C         139.6806  139.1144  158.5335 C.ar    1  UNL1        0.0016
     18 C         139.3341  139.2706  159.9845 C.ar    1  UNL1        0.0188
     19 C         138.8770  140.6001  160.5075 C.ar    1  UNL1        0.0785
     20 N         138.4699  141.0533  161.8782 N.ar    1  UNL1       -0.3167
     21 C         140.9427  140.9160  163.2552 C.3     1  UNL1        0.0955
     22 C         141.9979  140.4968  162.2748 C.ar    1  UNL1       -0.0022
     23 C         142.4179  141.4319  161.1797 C.ar    1  UNL1       -0.0025
     24 C         143.4730  141.0128  160.1993 C.ar    1  UNL1        0.0020
     25 C         144.1081  139.6587  160.3142 C.ar    1  UNL1        0.0296
     26 C         143.6881  138.7237  161.4093 C.ar    1  UNL1        0.1399
     27 F         144.3232  137.3696  161.5241 F       1  UNL1       -0.2042
     28 C         142.6330  139.1427  162.3897 C.ar    1  UNL1        0.0270
     29 N         141.2768  141.0309  164.7131 N.am    1  UNL1       -0.3022
     30 C         141.1974  142.3630  165.3980 C.2     1  UNL1        0.2225
     31 O         140.7841  143.5803  164.6251 O.2     1  UNL1       -0.2751
     32 H         141.5481  140.2319  165.2204 H       1  UNL1        0.1497
     33 C         141.5314  142.4779  166.8558 C.3     1  UNL1        0.0869
     34 C         140.4763  142.8968  167.8363 C.3     1  UNL1        0.0736
     35 C         140.8104  143.0117  169.2941 C.3     1  UNL1        0.2560
     36 S         142.1995  142.7077  169.7715 S.O     1  UNL1        0.0304
     37 O         142.5335  142.8226  171.2293 O.co2   1  UNL1       -0.6813
     38 C         143.2546  142.2888  168.7910 C.3     1  UNL1        0.2560
     39 C         142.9205  142.1740  167.3332 C.3     1  UNL1        0.0736
@<TRIPOS>UNITY_ATOM_ATTR
36 1
charge 1
37 1
charge -1
@<TRIPOS>BOND
     1    11    12    1
     2    12    13   ar
     3    13    14   ar
     4    14    15   ar
     5    15    16   ar
     6    16    17   ar
     7    17    18   ar
     8    18    19   ar
     9    19    20   ar
    10    20     3    1
    11     3     4    1
    12     5     4    1
    13     5     6    1
    14     6     7    1
    15     8     7    1
    16     8     9    1
    17     8    10    1
    18    10     2    1
    19     2     1    1
    20    21     1    1
    21    21    29    1
    22    29    30   am
    23    30    31    2
    24    30    33    1
    25    33    34    1
    26    34    35    1
    27    35    36    1
    28    36    37    2
    29    36    38    1
    30    38    39    1
    31    21    22    1
    32    22    23   ar
    33    23    24   ar
    34    24    25   ar
    35    25    26   ar
    36    26    27    1
    37    26    28   ar
    38    20    12   ar
    39     9     3    1
    40    39    33    1
    41    28    22   ar
    42    19    14   ar
    43    10     5    1
    44    29    32    1
@<TRIPOS>MOLECULE
*****
 39 44 0 0 0
SMALL
GASTEIGER

@<TRIPOS>ATOM
      1 C         140.2852  140.5933  163.2917 C.3     1  UNL1        0.0414
      2 C         139.0465  141.3219  162.8616 C.3     1  UNL1        0.0741
      3 C         139.1030  141.4350  162.7686 C.3     1  UNL1        0.0893
      4 C         138.3546  142.4078  163.6311 C.3     1  UNL1        0.0386
      5 C         138.4143  143.8763  163.3311 C.3     1  UNL1        0.0594
      6 C         138.7487  145.1878  162.6846 C.3     1  UNL1        0.0174
      7 C         139.6473  144.9125  161.5155 C.3     1  UNL1        0.0174
      8 C         139.8682  143.4308  161.4395 C.3     1  UNL1        0.0594
      9 C         139.9110  141.9309  161.6062 C.3     1  UNL1        0.0386
     10 N         139.1062  142.7903  162.5617 N.3     1  UNL1       -0.2750
     11 C         139.8628  139.0234  160.7056 C.3     1  UNL1        0.0718
     12 C         139.3925  138.8581  162.1203 C.ar    1  UNL1        0.1207
     13 N         139.1890  137.5552  162.8352 N.ar    1  UNL1       -0.2309
     14 C         138.7139  137.8585  164.2253 C.ar    1  UNL1        0.0983
     15 C         138.3517  136.9701  165.3784 C.ar    1  UNL1        0.0206
     16 C         137.8994  137.5721  166.6757 C.ar    1  UNL1        0.0016
     17 C         137.8094  139.0625  166.8199 C.ar    1  UNL1        0.0016
     18 C         138.1716  139.9508  165.6668 C.ar    1  UNL1        0.0188
     19 C         138.6239  139.3488  164.3695 C.ar    1  UNL1        0.0785
     20 N         139.0433  139.9666  163.0686 N.ar    1  UNL1       -0.3167
     21 C         141.3539  141.3170  164.0558 C.3     1  UNL1        0.0955
     22 C         142.6526  141.6591  163.3877 C.ar    1  UNL1       -0.0022
     23 C         143.5233  140.5685  162.8379 C.ar    1  UNL1       -0.0025
     24 C         144.8220  140.9105  162.1698 C.ar    1  UNL1        0.0020
     25 C         145.2499  142.3434  162.0515 C.ar    1  UNL1        0.0296
     26 C         144.3792  143.4341  162.6012 C.ar    1  UNL1        0.1399
     27 F         144.8071  144.8668  162.4828 F       1  UNL1       -0.2042
     28 C         143.0805  143.0920  163.2693 C.ar    1  UNL1        0.0270
     29 N         141.1240  141.6986  165.4882 N.am    1  UNL1       -0.3022
     30 C         141.3428  140.6907  166.5773 C.2     1  UNL1        0.2225
     31 O         141.7915  139.3011  166.2341 O.2     1  UNL1       -0.2751
     32 H         140.8294  142.6106  165.7134 H       1  UNL1        0.1497
     33 C         141.1129  141.0723  168.0096 C.3     1  UNL1        0.0869
     34 C         140.9639  142.5165  168.3864 C.3     1  UNL1        0.0736
     35 C         140.7340  142.8981  169.8188 C.3     1  UNL1        0.2560
     36 S         140.6532  141.8354  170.8743 S.O     1  UNL1        0.0304
     37 O         140.4233  142.2170  172.3066 O.co2   1  UNL1       -0.6813
     38 C         140.8022  140.3911  170.4975 C.3     1  UNL1        0.2560
     39 C         141.0321  140.0096  169.0652 C.3     1  UNL1        0.0736
@<TRIPOS>UNITY_ATOM_ATTR
36 1
charge 1
37 1
charge -1
@<TRIPOS>BOND
     1    11    12    1
     2    12    13   ar
     3    13    14   ar
     4    14    15   ar
     5    15    16   ar
     6    16    17   ar
     7    17    18   ar
     8    18    19   ar
     9    19    20   ar
    10    20     3    1
    11     3     4    1
    12     5     4    1
    13     5     6    1
    14     6     7    1
    15     8     7    1
    16     8     9    1
    17     8    10    1
    18    10     2    1
    19     2     1    1
    20    21     1    1
    21    21    29    1
    22    29    30   am
    23    30    31    2
    24    30    33    1
    25    33    34    1
    26    34    35    1
    27    35    36    1
    28    36    37    2
    29    36    38    1
    30    38    39    1
    31    21    22    1
    32    22    23   ar
    33    23    24   ar
    34    24    25   ar
    35    25    26   ar
    36    26    27    1
    37    26    28   ar
    38    20    12   ar
    39     9     3    1
    40    39    33    1
    41    28    22   ar
    42    19    14   ar
    43    10     5    1
    44    29    32    1
@<TRIPOS>MOLECULE
*****
 39 44 0 0 0
SMALL
GASTEIGER

@<TRIPOS>ATOM
      1 C         140.0005  142.0373  165.3762 C.3     1  UNL1        0.0414
      2 C         141.0184  143.0337  164.9057 C.3     1  UNL1        0.0741
      3 C         140.9097  143.1302  164.8464 C.3     1  UNL1        0.0893
      4 C         141.9086  143.4718  163.7807 C.3     1  UNL1        0.0386
      5 C         141.5529  144.4577  162.7076 C.3     1  UNL1        0.0594
      6 C         140.7947  145.4493  161.8759 C.3     1  UNL1        0.0174
      7 C         139.4360  145.6241  162.4869 C.3     1  UNL1        0.0174
      8 C         139.3544  144.7404  163.6962 C.3     1  UNL1        0.0594
      9 C         139.5552  143.7745  164.8389 C.3     1  UNL1        0.0386
     10 N         140.6627  144.0195  163.8327 N.3     1  UNL1       -0.2750
     11 C         139.9750  143.2740  167.9698 C.3     1  UNL1        0.0718
     12 C         140.8358  142.2104  167.3551 C.ar    1  UNL1        0.1207
     13 N         141.4181  141.0261  168.0682 N.ar    1  UNL1       -0.2309
     14 C         142.2076  140.2281  167.0733 C.ar    1  UNL1        0.0983
     15 C         143.0003  138.9615  167.2050 C.ar    1  UNL1        0.0206
     16 C         143.6986  138.3860  166.0088 C.ar    1  UNL1        0.0016
     17 C         143.6042  139.0771  164.6808 C.ar    1  UNL1        0.0016
     18 C         142.8116  140.3437  164.5490 C.ar    1  UNL1        0.0188
     19 C         142.1133  140.9192  165.7453 C.ar    1  UNL1        0.0785
     20 N         141.2654  142.1443  165.9195 N.ar    1  UNL1       -0.3167
     21 C         139.5665  140.9237  164.4700 C.3     1  UNL1        0.0955
     22 C         139.0593  139.6375  165.0520 C.ar    1  UNL1       -0.0022
     23 C         139.3800  138.3338  164.3832 C.ar    1  UNL1       -0.0025
     24 C         138.8728  137.0476  164.9651 C.ar    1  UNL1        0.0020
     25 C         138.0449  137.0654  166.2159 C.ar    1  UNL1        0.0296
     26 C         137.7242  138.3692  166.8847 C.ar    1  UNL1        0.1399
     27 F         136.8962  138.3868  168.1354 F       1  UNL1       -0.2042
     28 C         138.2314  139.6553  166.3027 C.ar    1  UNL1        0.0270
     29 N         139.6397  141.0960  162.9817 N.am    1  UNL1       -0.3022
     30 C         138.3982  141.4118  162.2013 C.2     1  UNL1        0.2225
     31 O         137.0836  141.5552  162.9091 O.2     1  UNL1       -0.2751
     32 H         140.5026  141.0019  162.5171 H       1  UNL1        0.1497
     33 C         138.4714  141.5841  160.7130 C.3     1  UNL1        0.0869
     34 C         138.0869  140.4521  159.8071 C.3     1  UNL1        0.0736
     35 C         138.1601  140.6246  158.3188 C.3     1  UNL1        0.2560
     36 S         138.6177  141.9290  157.7365 S.O     1  UNL1        0.0304
     37 O         138.6909  142.1013  156.2482 O.co2   1  UNL1       -0.6813
     38 C         139.0021  143.0610  158.6425 C.3     1  UNL1        0.2560
     39 C         138.9290  142.8885  160.1307 C.3     1  UNL1        0.0736
@<TRIPOS>UNITY_ATOM_ATTR
36 1
charge 1
37 1
charge -1
@<TRIPOS>BOND
     1    11    12    1
     2    12    13   ar
     3    13    14   ar
     4    14    15   ar
     5    15    16   ar
     6    16    17   ar
     7    17    18   ar
     8    18    19   ar
     9    19    20   ar
    10    20     3    1
    11     3     4    1
    12     5     4    1
    13     5     6    1
    14     6     7    1
    15     8     7    1
    16     8     9    1
    17     8    10    1
    18    10     2    1
    19     2     1    1
    20    21     1    1
    21    21    29    1
    22    29    30   am
    23    30    31    2
    24    30    33    1
    25    33    34    1
    26    34    35    1
    27    35    36    1
    28    36    37    2
    29    36    38    1
    30    38    39    1
    31    21    22    1
    32    22    23   ar
    33    23    24   ar
    34    24    25   ar
    35    25    26   ar
    36    26    27    1
    37    26    28   ar
    38    20    12   ar
    39     9     3    1
    40    39    33    1
    41    28    22   ar
    42    19    14   ar
    43    10     5    1
    44    29    32    1
@<TRIPOS>MOLECULE
*****
 39 44 0 0 0
SMALL
GASTEIGER

@<TRIPOS>ATOM
      1 C         140.2198  140.3560  163.0240 C.3     1  UNL1        0.0414
      2 C         138.8277  140.2080  163.5629 C.3     1  UNL1        0.0741
      3 C         138.8433  140.0616  163.6172 C.3     1  UNL1        0.0893
      4 C         138.1065  140.5218  164.8402 C.3     1  UNL1        0.0386
      5 C         137.8333  139.5593  165.9577 C.3     1  UNL1        0.0594
      6 C         137.7876  138.3079  166.7836 C.3     1  UNL1        0.0174
      7 C         138.4805  137.2209  166.0168 C.3     1  UNL1        0.0174
      8 C         138.9545  137.8003  164.7169 C.3     1  UNL1        0.0594
      9 C         139.3067  138.6389  163.5120 C.3     1  UNL1        0.0386
     10 N         138.5545  139.2456  164.6804 N.3     1  UNL1       -0.2750
     11 C         139.3324  139.2780  160.4873 C.3     1  UNL1        0.0718
     12 C         139.3414  140.6639  161.0610 C.ar    1  UNL1        0.1207
     13 N         139.5767  141.9330  160.2969 N.ar    1  UNL1       -0.2309
     14 C         139.4973  143.0776  161.2632 C.ar    1  UNL1        0.0983
     15 C         139.6472  144.5586  161.0793 C.ar    1  UNL1        0.0206
     16 C         139.5127  145.4780  162.2569 C.ar    1  UNL1        0.0016
     17 C         139.2283  144.9162  163.6183 C.ar    1  UNL1        0.0016
     18 C         139.0784  143.4351  163.8022 C.ar    1  UNL1        0.0188
     19 C         139.2129  142.5158  162.6246 C.ar    1  UNL1        0.0785
     20 N         139.1165  141.0241  162.4997 N.ar    1  UNL1       -0.3167
     21 C         141.2960  140.9544  163.8805 C.3     1  UNL1        0.0955
     22 C         142.5985  141.3728  163.2651 C.ar    1  UNL1       -0.0022
     23 C         143.5335  140.3382  162.7127 C.ar    1  UNL1       -0.0025
     24 C         144.8360  140.7565  162.0974 C.ar    1  UNL1        0.0020
     25 C         145.2033  142.2095  162.0346 C.ar    1  UNL1        0.0296
     26 C         144.2682  143.2442  162.5870 C.ar    1  UNL1        0.1399
     27 F         144.6356  144.6971  162.5240 F       1  UNL1       -0.2042
     28 C         142.9658  142.8258  163.2023 C.ar    1  UNL1        0.0270
     29 N         141.0698  141.1344  165.3524 N.am    1  UNL1       -0.3022
     30 C         141.5294  140.0809  166.3162 C.2     1  UNL1        0.2225
     31 O         142.2152  138.8475  165.8082 O.2     1  UNL1       -0.2751
     32 H         140.6196  141.9440  165.6859 H       1  UNL1        0.1497
     33 C         141.3033  140.2610  167.7881 C.3     1  UNL1        0.0869
     34 C         140.1633  141.1062  168.2739 C.3     1  UNL1        0.0736
     35 C         139.9372  141.2862  169.7459 C.3     1  UNL1        0.2560
     36 S         140.8510  140.6209  170.7319 S.O     1  UNL1        0.0304
     37 O         140.6248  140.8009  172.2038 O.co2   1  UNL1       -0.6813
     38 C         141.9910  139.7756  170.2460 C.3     1  UNL1        0.2560
     39 C         142.2170  139.5957  168.7742 C.3     1  UNL1        0.0736
@<TRIPOS>UNITY_ATOM_ATTR
36 1
charge 1
37 1
charge -1
@<TRIPOS>BOND
     1    11    12    1
     2    12    13   ar
     3    13    14   ar
     4    14    15   ar
     5    15    16   ar
     6    16    17   ar
     7    17    18   ar
     8    18    19   ar
     9    19    20   ar
    10    20     3    1
    11     3     4    1
    12     5     4    1
    13     5     6    1
    14     6     7    1
    15     8     7    1
    16     8     9    1
    17     8    10    1
    18    10     2    1
    19     2     1    1
    20    21     1    1
    21    21    29    1
    22    29    30   am
    23    30    31    2
    24    30    33    1
    25    33    34    1
    26    34    35    1
    27    35    36    1
    28    36    37    2
    29    36    38    1
    30    38    39    1
    31    21    22    1
    32    22    23   ar
    33    23    24   ar
    34    24    25   ar
    35    25    26   ar
    36    26    27    1
    37    26    28   ar
    38    20    12   ar
    39     9     3    1
    40    39    33    1
    41    28    22   ar
    42    19    14   ar
    43    10     5    1
    44    29    32    1
@<TRIPOS>MOLECULE
*****
 39 44 0 0 0
SMALL
GASTEIGER

@<TRIPOS>ATOM
      1 C         140.2548  142.0085  165.5954 C.3     1  UNL1        0.0414
      2 C         141.1696  143.0793  165.0790 C.3     1  UNL1        0.0741
      3 C         141.0500  143.1673  165.0282 C.3     1  UNL1        0.0893
      4 C         141.9601  143.6287  163.9287 C.3     1  UNL1        0.0386
      5 C         141.4652  144.6099  162.9077 C.3     1  UNL1        0.0594
      6 C         140.5816  145.5534  162.1468 C.3     1  UNL1        0.0174
      7 C         139.2450  145.5870  162.8269 C.3     1  UNL1        0.0174
      8 C         139.3026  144.6643  164.0081 C.3     1  UNL1        0.0594
      9 C         139.6452  143.6870  165.1067 C.3     1  UNL1        0.0386
     10 N         140.6748  144.0604  164.0581 N.3     1  UNL1       -0.2750
     11 C         143.0597  140.6593  164.4621 C.3     1  UNL1        0.0718
     12 C         142.4686  141.0333  165.7890 C.ar    1  UNL1        0.1207
     13 N         142.6975  140.3203  167.0887 N.ar    1  UNL1       -0.2309
     14 C         141.9152  141.0324  168.1522 C.ar    1  UNL1        0.0983
     15 C         141.7595  140.7798  169.6225 C.ar    1  UNL1        0.0206
     16 C         140.8915  141.6803  170.4504 C.ar    1  UNL1        0.0016
     17 C         140.1791  142.8335  169.8079 C.ar    1  UNL1        0.0016
     18 C         140.3348  143.0861  168.3376 C.ar    1  UNL1        0.0188
     19 C         141.2028  142.1856  167.5097 C.ar    1  UNL1        0.0785
     20 N         141.5449  142.1861  166.0492 N.ar    1  UNL1       -0.3167
     21 C         139.7279  140.9584  164.6630 C.3     1  UNL1        0.0955
     22 C         139.1460  139.6901  165.2136 C.ar    1  UNL1       -0.0022
     23 C         139.4037  138.3845  164.5216 C.ar    1  UNL1       -0.0025
     24 C         138.8219  137.1162  165.0722 C.ar    1  UNL1        0.0020
     25 C         137.9825  137.1537  166.3147 C.ar    1  UNL1        0.0296
     26 C         137.7248  138.4594  167.0068 C.ar    1  UNL1        0.1399
     27 F         136.8853  138.4967  168.2493 F       1  UNL1       -0.2042
     28 C         138.3066  139.7276  166.4562 C.ar    1  UNL1        0.0270
     29 N         139.7827  141.1764  163.1799 N.am    1  UNL1       -0.3022
     30 C         138.5149  141.3790  162.4042 C.2     1  UNL1        0.2225
     31 O         137.1923  141.3636  163.1116 O.2     1  UNL1       -0.2751
     32 H         140.6508  141.1864  162.7156 H       1  UNL1        0.1497
     33 C         138.5697  141.5970  160.9212 C.3     1  UNL1        0.0869
     34 C         138.0682  140.5351  159.9880 C.3     1  UNL1        0.0736
     35 C         138.1230  140.7532  158.5049 C.3     1  UNL1        0.2560
     36 S         138.6794  142.0330  157.9550 S.O     1  UNL1        0.0304
     37 O         138.7343  142.2510  156.4720 O.co2   1  UNL1       -0.6813
     38 C         139.1810  143.0949  158.8883 C.3     1  UNL1        0.2560
     39 C         139.1262  142.8768  160.3713 C.3     1  UNL1        0.0736
@<TRIPOS>UNITY_ATOM_ATTR
36 1
charge 1
37 1
charge -1
@<TRIPOS>BOND
     1    11    12    1
     2    12    13   ar
     3    13    14   ar
     4    14    15   ar
     5    15    16   ar
     6    16    17   ar
     7    17    18   ar
     8    18    19   ar
     9    19    20   ar
    10    20     3    1
    11     3     4    1
    12     5     4    1
    13     5     6    1
    14     6     7    1
    15     8     7    1
    16     8     9    1
    17     8    10    1
    18    10     2    1
    19     2     1    1
    20    21     1    1
    21    21    29    1
    22    29    30   am
    23    30    31    2
    24    30    33    1
    25    33    34    1
    26    34    35    1
    27    35    36    1
    28    36    37    2
    29    36    38    1
    30    38    39    1
    31    21    22    1
    32    22    23   ar
    33    23    24   ar
    34    24    25   ar
    35    25    26   ar
    36    26    27    1
    37    26    28   ar
    38    20    12   ar
    39     9     3    1
    40    39    33    1
    41    28    22   ar
    42    19    14   ar
    43    10     5    1
    44    29    32    1
