@<TRIPOS>MOLECULE
*****
 31 34 0 0 0
SMALL
GASTEIGER

@<TRIPOS>ATOM
      1 N         143.5564  139.7570  163.5336 N.3     1  UNL1       -0.2727
      2 C         142.2155  139.0848  163.5393 C.3     1  UNL1        0.0725
      3 C         141.3301  139.1878  164.7457 C.3     1  UNL1        0.0232
      4 C         141.7857  139.9629  165.9464 C.3     1  UNL1        0.0430
      5 C         143.1266  140.6350  165.9407 C.3     1  UNL1        0.0232
      6 C         144.0120  140.5321  164.7343 C.3     1  UNL1        0.0725
      7 C         142.1044  140.6994  167.2137 C.3     1  UNL1        0.1053
      8 N         140.9418  140.5391  168.1480 N.am    1  UNL1       -0.2280
      9 C         140.8352  141.1135  169.5295 C.2     1  UNL1        0.3121
     10 O         139.6045  140.8677  170.3510 O.2     1  UNL1       -0.2520
     11 N         141.9593  141.9337  170.0895 N.am    1  UNL1       -0.2602
     12 C         141.8527  142.5081  171.4710 C.3     1  UNL1        0.1165
     13 C         143.1900  142.1795  169.2679 C.3     1  UNL1        0.1165
     14 C         139.9045  139.7034  167.4580 C.ar    1  UNL1        0.1345
     15 N         138.5525  139.2208  167.8929 N.ar    1  UNL1       -0.2291
     16 C         137.7221  138.3822  166.9673 C.ar    1  UNL1        0.1003
     17 C         138.2436  138.0260  165.6066 C.ar    1  UNL1        0.0204
     18 C         139.5956  138.5086  165.1717 C.ar    1  UNL1        0.0001
     19 C         140.4261  139.3474  166.0974 C.ar    1  UNL1        0.0109
     20 C         144.4418  139.6540  162.3271 C.3     1  UNL1        0.0722
     21 C         142.1483  137.9169  157.0620 C.2     1  UNL1        0.4049
     22 O         141.9267  138.9231  155.9718 O.2     1  UNL1       -0.2262
     23 N         142.7217  138.3512  158.3782 N.am    1  UNL1       -0.2460
     24 C         142.9432  137.3449  159.4683 C.3     1  UNL1        0.0968
     25 C         143.5167  137.7792  160.7847 C.3     1  UNL1        0.0231
     26 C         143.8685  139.2197  161.0108 C.3     1  UNL1        0.0194
     27 C         143.6469  140.2260  159.9206 C.3     1  UNL1        0.0231
     28 C         143.0735  139.7917  158.6044 C.3     1  UNL1        0.0968
     29 O         141.7965  136.4763  156.8358 O.3     1  UNL1       -0.4345
     30 C         144.1000  136.0864  155.6993 C.3     1  UNL1        0.0513
     31 C         142.7458  135.5794  156.0980 C.3     1  UNL1        0.2102
@<TRIPOS>BOND
     1    30    31    1
     2    31    29    1
     3    29    21    1
     4    21    22    2
     5    21    23   am
     6    23    24    1
     7    24    25    1
     8    25    26    1
     9    26    20    1
    10    20     1    1
    11     1     2    1
    12     2     3    1
    13     3     4    1
    14     4     5    1
    15     5     6    1
    16     4     7    1
    17     7     8    1
    18     8     9   am
    19     9    10    2
    20     9    11   am
    21    11    12    1
    22    11    13    1
    23     8    14    1
    24    14    15   ar
    25    15    16   ar
    26    16    17   ar
    27    17    18   ar
    28    18    19   ar
    29    26    27    1
    30    27    28    1
    31    28    23    1
    32     6     1    1
    33    19    14   ar
    34    19     4    1
@<TRIPOS>MOLECULE
*****
 31 34 0 0 0
SMALL
GASTEIGER

@<TRIPOS>ATOM
      1 N         143.5528  139.4080  162.1294 N.3     1  UNL1       -0.2727
      2 C         142.3000  140.2119  161.9447 C.3     1  UNL1        0.0725
      3 C         141.4106  139.9542  160.7647 C.3     1  UNL1        0.0232
      4 C         141.7741  138.8925  159.7693 C.3     1  UNL1        0.0430
      5 C         143.0269  138.0886  159.9540 C.3     1  UNL1        0.0232
      6 C         143.9162  138.3463  161.1341 C.3     1  UNL1        0.0725
      7 C         142.0063  137.8696  158.6970 C.3     1  UNL1        0.1053
      8 N         140.8720  137.9574  157.7192 N.am    1  UNL1       -0.2280
      9 C         140.7010  137.1158  156.4894 C.2     1  UNL1        0.3121
     10 O         139.5090  137.3184  155.6018 O.2     1  UNL1       -0.2520
     11 N         141.7220  136.0715  156.1473 N.am    1  UNL1       -0.2602
     12 C         141.5510  135.2299  154.9175 C.3     1  UNL1        0.1165
     13 C         142.9140  135.8688  157.0351 C.3     1  UNL1        0.1165
     14 C         139.9388  139.0345  158.1873 C.ar    1  UNL1        0.1345
     15 N         138.6535  139.5637  157.6235 N.ar    1  UNL1       -0.2291
     16 C         137.9257  140.6708  158.3267 C.ar    1  UNL1        0.1003
     17 C         138.4832  141.2488  159.5937 C.ar    1  UNL1        0.0204
     18 C         139.7685  140.7196  160.1574 C.ar    1  UNL1        0.0001
     19 C         140.4963  139.6125  159.4543 C.ar    1  UNL1        0.0109
     20 C         144.4422  139.6657  163.3095 C.3     1  UNL1        0.0722
     21 C         142.0451  140.5174  168.7435 C.2     1  UNL1        0.4049
     22 O         141.8421  139.3513  169.6649 O.2     1  UNL1       -0.2262
     23 N         142.6443  140.3045  167.3850 N.am    1  UNL1       -0.2460
     24 C         142.8473  141.4706  166.4637 C.3     1  UNL1        0.0968
     25 C         143.4466  141.2577  165.1051 C.3     1  UNL1        0.0231
     26 C         143.8429  139.8786  164.6680 C.3     1  UNL1        0.0194
     27 C         143.6400  138.7125  165.5894 C.3     1  UNL1        0.0231
     28 C         143.0407  138.9254  166.9479 C.3     1  UNL1        0.0968
     29 O         141.6487  141.8965  169.1806 O.3     1  UNL1       -0.4345
     30 C         144.0832  142.4564  169.8947 C.3     1  UNL1        0.0513
     31 C         142.6121  142.7422  169.9596 C.3     1  UNL1        0.2102
@<TRIPOS>BOND
     1    30    31    1
     2    31    29    1
     3    29    21    1
     4    21    22    2
     5    21    23   am
     6    23    24    1
     7    24    25    1
     8    25    26    1
     9    26    20    1
    10    20     1    1
    11     1     2    1
    12     2     3    1
    13     3     4    1
    14     4     5    1
    15     5     6    1
    16     4     7    1
    17     7     8    1
    18     8     9   am
    19     9    10    2
    20     9    11   am
    21    11    12    1
    22    11    13    1
    23     8    14    1
    24    14    15   ar
    25    15    16   ar
    26    16    17   ar
    27    17    18   ar
    28    18    19   ar
    29    26    27    1
    30    27    28    1
    31    28    23    1
    32     6     1    1
    33    19    14   ar
    34    19     4    1
@<TRIPOS>MOLECULE
*****
 31 34 0 0 0
SMALL
GASTEIGER

@<TRIPOS>ATOM
      1 N         140.4904  144.7014  162.5323 N.3     1  UNL1       -0.2727
      2 C         141.5951  143.7634  162.1450 C.3     1  UNL1        0.0725
      3 C         142.0587  143.6985  160.7200 C.3     1  UNL1        0.0232
      4 C         141.4177  144.5714  159.6822 C.3     1  UNL1        0.0430
      5 C         140.3130  145.5093  160.0694 C.3     1  UNL1        0.0232
      6 C         139.8494  145.5743  161.4944 C.3     1  UNL1        0.0725
      7 C         140.8748  145.3791  158.5407 C.3     1  UNL1        0.1053
      8 N         141.6272  144.9942  157.3013 N.am    1  UNL1       -0.2280
      9 C         141.4099  145.5561  155.9277 C.2     1  UNL1        0.3121
     10 O         142.2434  145.0715  154.7786 O.2     1  UNL1       -0.2520
     11 N         140.3591  146.6027  155.7031 N.am    1  UNL1       -0.2602
     12 C         140.1418  147.1647  154.3295 C.3     1  UNL1        0.1165
     13 C         139.5256  147.0873  156.8523 C.3     1  UNL1        0.1165
     14 C         142.6351  143.9486  157.6770 C.ar    1  UNL1        0.1345
     15 N         143.6541  143.2007  156.8693 N.ar    1  UNL1       -0.2291
     16 C         144.5435  142.1916  157.5329 C.ar    1  UNL1        0.1003
     17 C         144.4140  141.9303  159.0044 C.ar    1  UNL1        0.0204
     18 C         143.3951  142.6782  159.8120 C.ar    1  UNL1        0.0001
     19 C         142.5056  143.6873  159.1483 C.ar    1  UNL1        0.0109
     20 C         140.0267  144.7664  163.9574 C.3     1  UNL1        0.0722
     21 C         138.9417  139.7060  166.9930 C.2     1  UNL1        0.4049
     22 O         139.6493  139.4426  168.2892 O.2     1  UNL1       -0.2262
     23 N         139.2130  140.9711  166.2341 N.am    1  UNL1       -0.2460
     24 C         138.5055  141.2345  164.9380 C.3     1  UNL1        0.0968
     25 C         138.7767  142.4996  164.1790 C.3     1  UNL1        0.0231
     26 C         139.7555  143.5013  164.7163 C.3     1  UNL1        0.0194
     27 C         140.4630  143.2379  166.0125 C.3     1  UNL1        0.0231
     28 C         140.1918  141.9728  166.7714 C.3     1  UNL1        0.0968
     29 O         137.9630  138.7044  166.4558 O.3     1  UNL1       -0.4345
     30 C         139.5164  137.6302  164.6716 C.3     1  UNL1        0.0513
     31 C         138.4565  137.4915  165.7240 C.3     1  UNL1        0.2102
@<TRIPOS>BOND
     1    30    31    1
     2    31    29    1
     3    29    21    1
     4    21    22    2
     5    21    23   am
     6    23    24    1
     7    24    25    1
     8    25    26    1
     9    26    20    1
    10    20     1    1
    11     1     2    1
    12     2     3    1
    13     3     4    1
    14     4     5    1
    15     5     6    1
    16     4     7    1
    17     7     8    1
    18     8     9   am
    19     9    10    2
    20     9    11   am
    21    11    12    1
    22    11    13    1
    23     8    14    1
    24    14    15   ar
    25    15    16   ar
    26    16    17   ar
    27    17    18   ar
    28    18    19   ar
    29    26    27    1
    30    27    28    1
    31    28    23    1
    32     6     1    1
    33    19    14   ar
    34    19     4    1
@<TRIPOS>MOLECULE
*****
 31 34 0 0 0
SMALL
GASTEIGER

@<TRIPOS>ATOM
      1 N         143.1549  138.4706  163.0676 N.3     1  UNL1       -0.2727
      2 C         141.8057  137.8714  163.3336 C.3     1  UNL1        0.0725
      3 C         141.0110  138.3130  164.5266 C.3     1  UNL1        0.0232
      4 C         141.5654  139.3538  165.4537 C.3     1  UNL1        0.0430
      5 C         142.9146  139.9530  165.1877 C.3     1  UNL1        0.0232
      6 C         143.7093  139.5113  163.9947 C.3     1  UNL1        0.0725
      7 C         141.9874  140.3794  166.4637 C.3     1  UNL1        0.1053
      8 N         140.8919  140.5068  167.4805 N.am    1  UNL1       -0.2280
      9 C         140.8949  141.4206  168.6700 C.2     1  UNL1        0.3121
     10 O         139.7219  141.4390  169.6046 O.2     1  UNL1       -0.2520
     11 N         142.0710  142.3161  168.9248 N.am    1  UNL1       -0.2602
     12 C         142.0740  143.2298  170.1143 C.3     1  UNL1        0.1165
     13 C         143.2441  142.2977  167.9901 C.3     1  UNL1        0.1165
     14 C         139.7928  139.5600  167.0988 C.ar    1  UNL1        0.1345
     15 N         138.4668  139.2546  167.7300 N.ar    1  UNL1       -0.2291
     16 C         137.5571  138.2367  167.1086 C.ar    1  UNL1        0.1003
     17 C         137.9733  137.5241  165.8560 C.ar    1  UNL1        0.0204
     18 C         139.2993  137.8294  165.2248 C.ar    1  UNL1        0.0001
     19 C         140.2091  138.8474  165.8462 C.ar    1  UNL1        0.0109
     20 C         143.9497  138.0289  161.8745 C.3     1  UNL1        0.0722
     21 C         142.5842  140.1199  156.4190 C.2     1  UNL1        0.4049
     22 O         141.8359  139.2538  155.4494 O.2     1  UNL1       -0.2262
     23 N         142.9256  139.5971  157.7829 N.am    1  UNL1       -0.2460
     24 C         143.6738  140.4633  158.7524 C.3     1  UNL1        0.0968
     25 C         144.0152  139.9405  160.1163 C.3     1  UNL1        0.0231
     26 C         143.6083  138.5517  160.5107 C.3     1  UNL1        0.0194
     27 C         142.8600  137.6855  159.5411 C.3     1  UNL1        0.0231
     28 C         142.5187  138.2083  158.1772 C.3     1  UNL1        0.0968
     29 O         142.9911  141.5088  156.0246 O.3     1  UNL1       -0.4345
     30 C         145.2639  140.5996  155.1540 C.3     1  UNL1        0.0513
     31 C         144.3085  141.7400  155.3457 C.3     1  UNL1        0.2102
@<TRIPOS>BOND
     1    30    31    1
     2    31    29    1
     3    29    21    1
     4    21    22    2
     5    21    23   am
     6    23    24    1
     7    24    25    1
     8    25    26    1
     9    26    20    1
    10    20     1    1
    11     1     2    1
    12     2     3    1
    13     3     4    1
    14     4     5    1
    15     5     6    1
    16     4     7    1
    17     7     8    1
    18     8     9   am
    19     9    10    2
    20     9    11   am
    21    11    12    1
    22    11    13    1
    23     8    14    1
    24    14    15   ar
    25    15    16   ar
    26    16    17   ar
    27    17    18   ar
    28    18    19   ar
    29    26    27    1
    30    27    28    1
    31    28    23    1
    32     6     1    1
    33    19    14   ar
    34    19     4    1
@<TRIPOS>MOLECULE
*****
 31 34 0 0 0
SMALL
GASTEIGER

@<TRIPOS>ATOM
      1 N         139.1925  139.4147  162.5724 N.3     1  UNL1       -0.2727
      2 C         140.0423  140.6485  162.6462 C.3     1  UNL1        0.0725
      3 C         140.0015  141.6549  161.5347 C.3     1  UNL1        0.0232
      4 C         139.1109  141.4275  160.3494 C.3     1  UNL1        0.0430
      5 C         138.2611  140.1936  160.2755 C.3     1  UNL1        0.0232
      6 C         138.3019  139.1873  161.3870 C.3     1  UNL1        0.0725
      7 C         138.2740  141.3365  159.1078 C.3     1  UNL1        0.1053
      8 N         138.5457  142.5544  158.2753 N.am    1  UNL1       -0.2280
      9 C         137.9221  142.8727  156.9488 C.2     1  UNL1        0.3121
     10 O         138.2935  144.1352  156.2291 O.2     1  UNL1       -0.2520
     11 N         136.9270  141.9284  156.3419 N.am    1  UNL1       -0.2602
     12 C         136.3034  142.2467  155.0154 C.3     1  UNL1        0.1165
     13 C         136.5556  140.6659  157.0617 C.3     1  UNL1        0.1165
     14 C         139.5505  143.3981  159.0024 C.ar    1  UNL1        0.1345
     15 N         140.1926  144.7105  158.6629 N.ar    1  UNL1       -0.2291
     16 C         141.1839  145.3265  159.6051 C.ar    1  UNL1        0.1003
     17 C         141.5332  144.6300  160.8869 C.ar    1  UNL1        0.0204
     18 C         140.8912  143.3176  161.2264 C.ar    1  UNL1        0.0001
     19 C         139.8998  142.7016  160.2842 C.ar    1  UNL1        0.0109
     20 C         139.2333  138.4082  163.6839 C.3     1  UNL1        0.0722
     21 C         139.5528  140.2474  169.3861 C.2     1  UNL1        0.4049
     22 O         138.3491  140.1459  170.2755 O.2     1  UNL1       -0.2262
     23 N         139.4729  139.7876  167.9606 N.am    1  UNL1       -0.2460
     24 C         140.6766  139.8890  167.0713 C.3     1  UNL1        0.0968
     25 C         140.5967  139.4292  165.6456 C.3     1  UNL1        0.0231
     26 C         139.3132  138.8680  165.1094 C.3     1  UNL1        0.0194
     27 C         138.1095  138.7666  165.9988 C.3     1  UNL1        0.0231
     28 C         138.1894  139.2263  167.4243 C.3     1  UNL1        0.0968
     29 O         140.8364  140.8086  169.9223 O.3     1  UNL1       -0.4345
     30 C         140.3841  143.2453  169.1426 C.3     1  UNL1        0.0513
     31 C         140.9789  142.2871  170.1316 C.3     1  UNL1        0.2102
@<TRIPOS>BOND
     1    30    31    1
     2    31    29    1
     3    29    21    1
     4    21    22    2
     5    21    23   am
     6    23    24    1
     7    24    25    1
     8    25    26    1
     9    26    20    1
    10    20     1    1
    11     1     2    1
    12     2     3    1
    13     3     4    1
    14     4     5    1
    15     5     6    1
    16     4     7    1
    17     7     8    1
    18     8     9   am
    19     9    10    2
    20     9    11   am
    21    11    12    1
    22    11    13    1
    23     8    14    1
    24    14    15   ar
    25    15    16   ar
    26    16    17   ar
    27    17    18   ar
    28    18    19   ar
    29    26    27    1
    30    27    28    1
    31    28    23    1
    32     6     1    1
    33    19    14   ar
    34    19     4    1
@<TRIPOS>MOLECULE
*****
 31 34 0 0 0
SMALL
GASTEIGER

@<TRIPOS>ATOM
      1 N         142.5642  138.7829  158.6130 N.3     1  UNL1       -0.2727
      2 C         143.6547  139.5557  159.2939 C.3     1  UNL1        0.0725
      3 C         143.5065  139.9529  160.7327 C.3     1  UNL1        0.0232
      4 C         142.2677  139.5773  161.4906 C.3     1  UNL1        0.0430
      5 C         141.1772  138.8046  160.8097 C.3     1  UNL1        0.0232
      6 C         141.3255  138.4074  159.3709 C.3     1  UNL1        0.0725
      7 C         141.0926  139.2744  162.3723 C.3     1  UNL1        0.1053
      8 N         141.3672  139.8571  163.7271 N.am    1  UNL1       -0.2280
      9 C         140.4568  139.7887  164.9172 C.2     1  UNL1        0.3121
     10 O         140.8683  140.4212  166.2135 O.2     1  UNL1       -0.2520
     11 N         139.1349  139.0879  164.8110 N.am    1  UNL1       -0.2602
     12 C         138.2245  139.0195  166.0012 C.3     1  UNL1        0.1165
     13 C         138.7233  138.4553  163.5146 C.3     1  UNL1        0.1165
     14 C         142.7120  140.5201  163.6826 C.ar    1  UNL1        0.1345
     15 N         143.5017  141.2588  164.7221 N.ar    1  UNL1       -0.2291
     16 C         144.8479  141.8247  164.3795 C.ar    1  UNL1        0.1003
     17 C         145.4045  141.6518  162.9973 C.ar    1  UNL1        0.0204
     18 C         144.6148  140.9131  161.9578 C.ar    1  UNL1        0.0001
     19 C         143.2686  140.3472  162.3004 C.ar    1  UNL1        0.0109
     20 C         142.7125  138.3857  157.1741 C.3     1  UNL1        0.0722
     21 C         141.8136  132.6867  155.5272 C.2     1  UNL1        0.4049
     22 O         140.8616  132.3694  154.4123 O.2     1  UNL1       -0.2262
     23 N         142.0383  134.1114  155.9389 N.am    1  UNL1       -0.2460
     24 C         142.9903  134.4286  157.0538 C.3     1  UNL1        0.0968
     25 C         143.2151  135.8535  157.4656 C.3     1  UNL1        0.0231
     26 C         142.4878  136.9610  156.7624 C.3     1  UNL1        0.0194
     27 C         141.5357  136.6437  155.6475 C.3     1  UNL1        0.0231
     28 C         141.3110  135.2189  155.2358 C.3     1  UNL1        0.0968
     29 O         142.5409  131.5791  156.2304 O.3     1  UNL1       -0.4345
     30 C         145.1350  131.5829  156.3742 C.3     1  UNL1        0.0513
     31 C         143.8710  131.1116  155.7182 C.3     1  UNL1        0.2102
@<TRIPOS>BOND
     1    30    31    1
     2    31    29    1
     3    29    21    1
     4    21    22    2
     5    21    23   am
     6    23    24    1
     7    24    25    1
     8    25    26    1
     9    26    20    1
    10    20     1    1
    11     1     2    1
    12     2     3    1
    13     3     4    1
    14     4     5    1
    15     5     6    1
    16     4     7    1
    17     7     8    1
    18     8     9   am
    19     9    10    2
    20     9    11   am
    21    11    12    1
    22    11    13    1
    23     8    14    1
    24    14    15   ar
    25    15    16   ar
    26    16    17   ar
    27    17    18   ar
    28    18    19   ar
    29    26    27    1
    30    27    28    1
    31    28    23    1
    32     6     1    1
    33    19    14   ar
    34    19     4    1
@<TRIPOS>MOLECULE
*****
 31 34 0 0 0
SMALL
GASTEIGER

@<TRIPOS>ATOM
      1 N         139.5313  138.8491  162.6493 N.3     1  UNL1       -0.2727
      2 C         140.3137  138.0628  161.6396 C.3     1  UNL1        0.0725
      3 C         140.8892  138.7495  160.4367 C.3     1  UNL1        0.0232
      4 C         140.6824  140.2226  160.2434 C.3     1  UNL1        0.0430
      5 C         139.9000  141.0089  161.2531 C.3     1  UNL1        0.0232
      6 C         139.3244  140.3221  162.4560 C.3     1  UNL1        0.0725
      7 C         140.5586  141.6815  159.9177 C.3     1  UNL1        0.1053
      8 N         141.2826  141.9316  158.6279 N.am    1  UNL1       -0.2280
      9 C         141.4125  143.2539  157.9317 C.2     1  UNL1        0.3121
     10 O         142.1706  143.3507  156.6411 O.2     1  UNL1       -0.2520
     11 N         140.7842  144.4794  158.5263 N.am    1  UNL1       -0.2602
     12 C         140.9142  145.8017  157.8301 C.3     1  UNL1        0.1165
     13 C         140.0261  144.3826  159.8170 C.3     1  UNL1        0.1165
     14 C         141.8537  140.6271  158.1565 C.ar    1  UNL1        0.1345
     15 N         142.6637  140.2646  156.9472 N.ar    1  UNL1       -0.2291
     16 C         143.1027  138.8459  156.7362 C.ar    1  UNL1        0.1003
     17 C         142.7318  137.7896  157.7347 C.ar    1  UNL1        0.0204
     18 C         141.9219  138.1522  158.9440 C.ar    1  UNL1        0.0001
     19 C         141.4828  139.5709  159.1549 C.ar    1  UNL1        0.0109
     20 C         138.9556  138.1624  163.8523 C.3     1  UNL1        0.0722
     21 C         139.8126  140.4737  169.3225 C.2     1  UNL1        0.4049
     22 O         138.6923  140.4750  170.3201 O.2     1  UNL1       -0.2262
     23 N         139.5983  139.8959  167.9550 N.am    1  UNL1       -0.2460
     24 C         140.7185  139.8946  166.9575 C.3     1  UNL1        0.0968
     25 C         140.5043  139.3167  165.5898 C.3     1  UNL1        0.0231
     26 C         139.1699  138.7402  165.2198 C.3     1  UNL1        0.0194
     27 C         138.0497  138.7415  166.2175 C.3     1  UNL1        0.0231
     28 C         138.2639  139.3193  167.5850 C.3     1  UNL1        0.0968
     29 O         141.1470  141.0502  169.6925 O.3     1  UNL1       -0.4345
     30 C         140.4678  143.5577  169.6564 C.3     1  UNL1        0.0513
     31 C         141.2319  142.4277  170.2803 C.3     1  UNL1        0.2102
@<TRIPOS>BOND
     1    30    31    1
     2    31    29    1
     3    29    21    1
     4    21    22    2
     5    21    23   am
     6    23    24    1
     7    24    25    1
     8    25    26    1
     9    26    20    1
    10    20     1    1
    11     1     2    1
    12     2     3    1
    13     3     4    1
    14     4     5    1
    15     5     6    1
    16     4     7    1
    17     7     8    1
    18     8     9   am
    19     9    10    2
    20     9    11   am
    21    11    12    1
    22    11    13    1
    23     8    14    1
    24    14    15   ar
    25    15    16   ar
    26    16    17   ar
    27    17    18   ar
    28    18    19   ar
    29    26    27    1
    30    27    28    1
    31    28    23    1
    32     6     1    1
    33    19    14   ar
    34    19     4    1
@<TRIPOS>MOLECULE
*****
 31 34 0 0 0
SMALL
GASTEIGER

@<TRIPOS>ATOM
      1 N         142.9161  134.8296  156.3698 N.3     1  UNL1       -0.2727
      2 C         141.9432  134.2735  155.3728 C.3     1  UNL1        0.0725
      3 C         141.7525  132.7901  155.2579 C.3     1  UNL1        0.0232
      4 C         142.5348  131.8629  156.1401 C.3     1  UNL1        0.0430
      5 C         143.5077  132.4189  157.1372 C.3     1  UNL1        0.0232
      6 C         143.6984  133.9023  157.2520 C.3     1  UNL1        0.0725
      7 C         143.2425  130.8176  156.9504 C.3     1  UNL1        0.1053
      8 N         142.7480  129.4729  156.5058 N.am    1  UNL1       -0.2280
      9 C         143.1894  128.1469  157.0506 C.2     1  UNL1        0.3121
     10 O         142.6030  126.8790  156.5044 O.2     1  UNL1       -0.2520
     11 N         144.2171  128.0889  158.1417 N.am    1  UNL1       -0.2602
     12 C         144.6585  126.7628  158.6865 C.3     1  UNL1        0.1165
     13 C         144.8035  129.3569  158.6879 C.3     1  UNL1        0.1165
     14 C         141.7346  129.6872  155.4208 C.ar    1  UNL1        0.1345
     15 N         140.9148  128.7283  154.6095 N.ar    1  UNL1       -0.2291
     16 C         139.9633  129.2463  153.5721 C.ar    1  UNL1        0.1003
     17 C         139.8315  130.7233  153.3460 C.ar    1  UNL1        0.0204
     18 C         140.6513  131.6823  154.1574 C.ar    1  UNL1        0.0001
     19 C         141.6028  131.1642  155.1948 C.ar    1  UNL1        0.0109
     20 C         143.1068  136.3130  156.4847 C.3     1  UNL1        0.0722
     21 C         139.1360  139.6211  159.5325 C.2     1  UNL1        0.4049
     22 O         137.7849  139.9016  158.9443 O.2     1  UNL1       -0.2262
     23 N         140.1287  138.7941  158.7706 N.am    1  UNL1       -0.2460
     24 C         141.4797  138.5136  159.3588 C.3     1  UNL1        0.0968
     25 C         142.4725  137.6865  158.5968 C.3     1  UNL1        0.0231
     26 C         142.1142  137.1400  157.2467 C.3     1  UNL1        0.0194
     27 C         140.7631  137.4205  156.6585 C.3     1  UNL1        0.0231
     28 C         139.7704  138.2476  157.4204 C.3     1  UNL1        0.0968
     29 O         139.4944  140.1676  160.8827 O.3     1  UNL1       -0.4345
     30 C         138.2330  138.2042  162.0247 C.3     1  UNL1        0.0513
     31 C         138.9657  139.5094  162.1226 C.3     1  UNL1        0.2102
@<TRIPOS>BOND
     1    30    31    1
     2    31    29    1
     3    29    21    1
     4    21    22    2
     5    21    23   am
     6    23    24    1
     7    24    25    1
     8    25    26    1
     9    26    20    1
    10    20     1    1
    11     1     2    1
    12     2     3    1
    13     3     4    1
    14     4     5    1
    15     5     6    1
    16     4     7    1
    17     7     8    1
    18     8     9   am
    19     9    10    2
    20     9    11   am
    21    11    12    1
    22    11    13    1
    23     8    14    1
    24    14    15   ar
    25    15    16   ar
    26    16    17   ar
    27    17    18   ar
    28    18    19   ar
    29    26    27    1
    30    27    28    1
    31    28    23    1
    32     6     1    1
    33    19    14   ar
    34    19     4    1
@<TRIPOS>MOLECULE
*****
 31 34 0 0 0
SMALL
GASTEIGER

@<TRIPOS>ATOM
      1 N         143.3284  141.8336  162.9438 N.3     1  UNL1       -0.2727
      2 C         142.2014  140.8599  162.7662 C.3     1  UNL1        0.0725
      3 C         141.4215  140.3899  163.9581 C.3     1  UNL1        0.0232
      4 C         141.7686  140.8936  165.3277 C.3     1  UNL1        0.0430
      5 C         142.8956  141.8673  165.5054 C.3     1  UNL1        0.0232
      6 C         143.6755  142.3373  164.3134 C.3     1  UNL1        0.0725
      7 C         141.9987  141.3074  166.7510 C.3     1  UNL1        0.1053
      8 N         140.9939  140.5968  167.6087 N.am    1  UNL1       -0.2280
      9 C         140.8632  140.7179  169.0980 C.2     1  UNL1        0.3121
     10 O         139.8046  139.9416  169.8236 O.2     1  UNL1       -0.2520
     11 N         141.7912  141.6154  169.8618 N.am    1  UNL1       -0.2602
     12 C         141.6605  141.7365  171.3512 C.3     1  UNL1        0.1165
     13 C         142.8499  142.3917  169.1362 C.3     1  UNL1        0.1165
     14 C         140.1428  139.7437  166.7153 C.ar    1  UNL1        0.1345
     15 N         138.9937  138.8236  167.0034 N.ar    1  UNL1       -0.2291
     16 C         138.3234  138.0870  165.8818 C.ar    1  UNL1        0.1003
     17 C         138.8021  138.2704  164.4721 C.ar    1  UNL1        0.0204
     18 C         139.9512  139.1905  164.1841 C.ar    1  UNL1        0.0001
     19 C         140.6216  139.9272  165.3057 C.ar    1  UNL1        0.0109
     20 C         144.1084  142.3037  161.7519 C.3     1  UNL1        0.0722
     21 C         141.2902  145.0151  157.2015 C.2     1  UNL1        0.4049
     22 O         141.7825  144.8291  155.7968 O.2     1  UNL1       -0.2262
     23 N         141.9947  144.3372  158.3391 N.am    1  UNL1       -0.2460
     24 C         141.5024  144.5232  159.7437 C.3     1  UNL1        0.0968
     25 C         142.2070  143.8454  160.8814 C.3     1  UNL1        0.0231
     26 C         143.4039  142.9815  160.6143 C.3     1  UNL1        0.0194
     27 C         143.8961  142.7956  159.2096 C.3     1  UNL1        0.0231
     28 C         143.1916  143.4734  158.0720 C.3     1  UNL1        0.0968
     29 O         140.0933  145.8789  157.4686 O.3     1  UNL1       -0.4345
     30 C         138.6126  146.5314  155.4359 C.3     1  UNL1        0.0513
     31 C         139.6567  146.8909  156.4511 C.3     1  UNL1        0.2102
@<TRIPOS>BOND
     1    30    31    1
     2    31    29    1
     3    29    21    1
     4    21    22    2
     5    21    23   am
     6    23    24    1
     7    24    25    1
     8    25    26    1
     9    26    20    1
    10    20     1    1
    11     1     2    1
    12     2     3    1
    13     3     4    1
    14     4     5    1
    15     5     6    1
    16     4     7    1
    17     7     8    1
    18     8     9   am
    19     9    10    2
    20     9    11   am
    21    11    12    1
    22    11    13    1
    23     8    14    1
    24    14    15   ar
    25    15    16   ar
    26    16    17   ar
    27    17    18   ar
    28    18    19   ar
    29    26    27    1
    30    27    28    1
    31    28    23    1
    32     6     1    1
    33    19    14   ar
    34    19     4    1
