@<TRIPOS>MOLECULE
*****
 33 37 0 0 0
SMALL
GASTEIGER

@<TRIPOS>ATOM
      1 C         142.3693  143.8054  161.8307 C.3     1  UNL1        0.0827
      2 C         141.2893  144.8294  161.6427 C.3     1  UNL1        0.0309
      3 C         140.8987  145.2622  160.2608 C.3     1  UNL1        0.0954
      4 N         141.5879  144.6711  159.0668 N.am    1  UNL1       -0.2642
      5 C         141.1971  145.1040  157.6847 C.2     1  UNL1        0.3039
      6 O         141.8863  144.5130  156.4907 O.2     1  UNL1       -0.2526
      7 N         140.1172  146.1280  157.4967 N.am    1  UNL1       -0.2901
      8 C         142.6677  143.6473  159.2547 C.3     1  UNL1        0.0954
      9 C         143.0585  143.2144  160.6367 C.3     1  UNL1        0.0309
     10 H         139.6649  146.5159  158.2803 H       1  UNL1        0.1509
     11 C         142.6372  142.6568  165.5286 C.ar    1  UNL1        0.2033
     12 N         144.0853  142.7560  165.1503 N.ar    1  UNL1       -0.0560
     13 O         144.1612  143.1983  163.7190 O.2     1  UNL1       -0.3370
     14 C         142.7600  143.3725  163.2127 C.ar    1  UNL1        0.2362
     15 N         141.8181  143.0378  164.3311 N.ar    1  UNL1       -0.1908
     16 C         141.0319  141.4312  169.5499 C.ar    1  UNL1        0.0140
     17 C         142.4461  141.9146  169.4225 C.ar    1  UNL1        0.0012
     18 C         142.9812  142.3232  168.0821 C.ar    1  UNL1        0.0032
     19 C         142.1021  142.2482  166.8690 C.ar    1  UNL1        0.0391
     20 C         140.6879  141.7648  166.9964 C.ar    1  UNL1        0.0032
     21 C         140.1528  141.3562  168.3369 C.ar    1  UNL1        0.0012
     22 O         139.7706  139.7190  171.0424 O.co2   1  UNL1       -0.5446
     23 C         140.4968  141.0226  170.8904 C.2     1  UNL1        0.0729
     24 O         140.6879  141.9177  172.0787 O.co2   1  UNL1       -0.5446
     25 C         139.7265  146.5609  156.1147 C.3     1  UNL1        0.0774
     26 C         139.3560  146.2181  154.7021 C.3     1  UNL1        0.0259
     27 C         139.4201  147.6533  155.1335 C.3     1  UNL1        0.0420
     28 C         139.2802  149.1127  154.8161 C.ar    1  UNL1       -0.0208
     29 C         138.5724  150.0241  155.7744 C.ar    1  UNL1       -0.0042
     30 C         138.4325  151.4835  155.4570 C.ar    1  UNL1       -0.0003
     31 C         139.0004  152.0313  154.1814 C.ar    1  UNL1       -0.0000
     32 C         139.7082  151.1199  153.2232 C.ar    1  UNL1       -0.0003
     33 C         139.8481  149.6606  153.5405 C.ar    1  UNL1       -0.0042
@<TRIPOS>UNITY_ATOM_ATTR
22 1
charge -1
@<TRIPOS>BOND
     1    22    23   ar
     2    23    24   ar
     3    23    16    1
     4    16    17   ar
     5    17    18   ar
     6    18    19   ar
     7    19    11    1
     8    11    12   ar
     9    12    13   ar
    10    13    14   ar
    11    14     1    1
    12     1     2    1
    13     2     3    1
    14     3     4    1
    15     4     5   am
    16     5     6    2
    17     5     7   am
    18     7    25    1
    19    25    26    1
    20    26    27    1
    21    27    28    1
    22    28    29   ar
    23    29    30   ar
    24    30    31   ar
    25    31    32   ar
    26    32    33   ar
    27     4     8    1
    28     8     9    1
    29    14    15   ar
    30    19    20   ar
    31    20    21   ar
    32    21    16   ar
    33    15    11   ar
    34     9     1    1
    35    27    25    1
    36    33    28   ar
    37     7    10    1
@<TRIPOS>MOLECULE
*****
 33 37 0 0 0
SMALL
GASTEIGER

@<TRIPOS>ATOM
      1 C         140.9792  140.2562  161.5616 C.3     1  UNL1        0.0827
      2 C         142.2561  139.4765  161.4538 C.3     1  UNL1        0.0309
      3 C         142.5103  138.6163  160.2517 C.3     1  UNL1        0.0954
      4 N         141.4877  138.5357  159.1573 N.am    1  UNL1       -0.2642
      5 C         141.7419  137.6754  157.9551 C.2     1  UNL1        0.3039
      6 O         140.7193  137.5948  156.8607 O.2     1  UNL1       -0.2526
      7 N         143.0188  136.8956  157.8473 N.am    1  UNL1       -0.2901
      8 C         140.2109  139.3154  159.2651 C.3     1  UNL1        0.0954
      9 C         139.9566  140.1757  160.4672 C.3     1  UNL1        0.0309
     10 H         143.6900  136.9485  158.5656 H       1  UNL1        0.1509
     11 C         140.8424  142.0488  165.0016 C.ar    1  UNL1        0.2033
     12 N         139.8250  142.8320  164.2260 N.ar    1  UNL1       -0.0560
     13 O         139.7524  142.2558  162.8429 O.2     1  UNL1       -0.3370
     14 C         140.7249  141.1165  162.7638 C.ar    1  UNL1        0.2362
     15 N         141.3986  140.9886  164.0979 N.ar    1  UNL1       -0.1908
     16 C         142.0193  142.7557  169.2871 C.ar    1  UNL1        0.0140
     17 C         140.6422  143.1205  168.8175 C.ar    1  UNL1        0.0012
     18 C         140.2499  142.8849  167.3891 C.ar    1  UNL1        0.0032
     19 C         141.2347  142.2844  166.4301 C.ar    1  UNL1        0.0391
     20 C         142.6118  141.9197  166.8996 C.ar    1  UNL1        0.0032
     21 C         143.0041  142.1553  168.3281 C.ar    1  UNL1        0.0012
     22 O         141.7416  142.2208  171.8142 O.co2   1  UNL1       -0.5446
     23 C         142.4116  142.9914  170.7156 C.2     1  UNL1        0.0729
     24 O         143.4740  143.9976  171.0454 O.co2   1  UNL1       -0.5446
     25 C         143.2731  136.0353  156.6451 C.3     1  UNL1        0.0774
     26 C         143.3686  135.8790  155.1563 C.3     1  UNL1        0.0259
     27 C         143.6179  134.7016  156.0516 C.3     1  UNL1        0.0420
     28 C         143.9609  133.2518  156.2259 C.ar    1  UNL1       -0.0208
     29 C         144.5517  132.7709  157.5180 C.ar    1  UNL1       -0.0042
     30 C         144.8948  131.3210  157.6923 C.ar    1  UNL1       -0.0003
     31 C         144.6469  130.3522  156.5744 C.ar    1  UNL1       -0.0000
     32 C         144.0560  130.8331  155.2822 C.ar    1  UNL1       -0.0003
     33 C         143.7131  132.2828  155.1080 C.ar    1  UNL1       -0.0042
@<TRIPOS>UNITY_ATOM_ATTR
22 1
charge -1
@<TRIPOS>BOND
     1    22    23   ar
     2    23    24   ar
     3    23    16    1
     4    16    17   ar
     5    17    18   ar
     6    18    19   ar
     7    19    11    1
     8    11    12   ar
     9    12    13   ar
    10    13    14   ar
    11    14     1    1
    12     1     2    1
    13     2     3    1
    14     3     4    1
    15     4     5   am
    16     5     6    2
    17     5     7   am
    18     7    25    1
    19    25    26    1
    20    26    27    1
    21    27    28    1
    22    28    29   ar
    23    29    30   ar
    24    30    31   ar
    25    31    32   ar
    26    32    33   ar
    27     4     8    1
    28     8     9    1
    29    14    15   ar
    30    19    20   ar
    31    20    21   ar
    32    21    16   ar
    33    15    11   ar
    34     9     1    1
    35    27    25    1
    36    33    28   ar
    37     7    10    1
@<TRIPOS>MOLECULE
*****
 33 37 0 0 0
SMALL
GASTEIGER

@<TRIPOS>ATOM
      1 C         140.5704  142.9966  161.0383 C.3     1  UNL1        0.0827
      2 C         141.3169  144.2523  160.6976 C.3     1  UNL1        0.0309
      3 C         141.0952  144.9207  159.3732 C.3     1  UNL1        0.0954
      4 N         140.1270  144.3334  158.3895 N.am    1  UNL1       -0.2642
      5 C         139.9053  145.0019  157.0650 C.2     1  UNL1        0.3039
      6 O         138.9371  144.4147  156.0813 O.2     1  UNL1       -0.2526
      7 N         140.6518  146.2575  156.7244 N.am    1  UNL1       -0.2901
      8 C         139.3805  143.0779  158.7302 C.3     1  UNL1        0.0954
      9 C         139.6022  142.4094  160.0545 C.3     1  UNL1        0.0309
     10 H         141.2873  146.6429  157.3700 H       1  UNL1        0.1509
     11 C         141.2003  141.9709  164.7284 C.ar    1  UNL1        0.2033
     12 N         141.0661  140.6283  164.0732 N.ar    1  UNL1       -0.0560
     13 O         140.8138  140.8491  162.6111 O.2     1  UNL1       -0.3370
     14 C         140.7921  142.3282  162.3627 C.ar    1  UNL1        0.2362
     15 N         141.0309  143.0215  163.6712 N.ar    1  UNL1       -0.1908
     16 C         141.9748  142.7162  169.0981 C.ar    1  UNL1        0.0140
     17 C         143.0609  142.1552  168.2289 C.ar    1  UNL1        0.0012
     18 C         142.8027  141.9067  166.7723 C.ar    1  UNL1        0.0032
     19 C         141.4584  142.2194  166.1849 C.ar    1  UNL1        0.0391
     20 C         140.3723  142.7804  167.0541 C.ar    1  UNL1        0.0032
     21 C         140.6305  143.0288  168.5107 C.ar    1  UNL1        0.0012
     22 O         143.2506  143.9843  170.9728 O.co2   1  UNL1       -0.5446
     23 C         142.2330  142.9647  170.5547 C.2     1  UNL1        0.0729
     24 O         141.4736  142.1935  171.5932 O.co2   1  UNL1       -0.5446
     25 C         140.4302  146.9260  155.4000 C.3     1  UNL1        0.0774
     26 C         140.4621  146.8816  153.9010 C.3     1  UNL1        0.0259
     27 C         140.0143  148.1281  154.6050 C.3     1  UNL1        0.0420
     28 C         139.5157  149.5418  154.5525 C.ar    1  UNL1       -0.0208
     29 C         138.8402  150.1438  155.7489 C.ar    1  UNL1       -0.0042
     30 C         138.3416  151.5575  155.6965 C.ar    1  UNL1       -0.0003
     31 C         138.5184  152.3692  154.4476 C.ar    1  UNL1       -0.0000
     32 C         139.1939  151.7673  153.2512 C.ar    1  UNL1       -0.0003
     33 C         139.6925  150.3536  153.3037 C.ar    1  UNL1       -0.0042
@<TRIPOS>UNITY_ATOM_ATTR
22 1
charge -1
@<TRIPOS>BOND
     1    22    23   ar
     2    23    24   ar
     3    23    16    1
     4    16    17   ar
     5    17    18   ar
     6    18    19   ar
     7    19    11    1
     8    11    12   ar
     9    12    13   ar
    10    13    14   ar
    11    14     1    1
    12     1     2    1
    13     2     3    1
    14     3     4    1
    15     4     5   am
    16     5     6    2
    17     5     7   am
    18     7    25    1
    19    25    26    1
    20    26    27    1
    21    27    28    1
    22    28    29   ar
    23    29    30   ar
    24    30    31   ar
    25    31    32   ar
    26    32    33   ar
    27     4     8    1
    28     8     9    1
    29    14    15   ar
    30    19    20   ar
    31    20    21   ar
    32    21    16   ar
    33    15    11   ar
    34     9     1    1
    35    27    25    1
    36    33    28   ar
    37     7    10    1
@<TRIPOS>MOLECULE
*****
 33 37 0 0 0
SMALL
GASTEIGER

@<TRIPOS>ATOM
      1 C         143.2041  139.8429  161.6591 C.3     1  UNL1        0.0827
      2 C         143.5289  138.3837  161.5353 C.3     1  UNL1        0.0309
      3 C         143.3054  137.6735  160.2333 C.3     1  UNL1        0.0954
      4 N         142.7570  138.4223  159.0549 N.am    1  UNL1       -0.2642
      5 C         142.5334  137.7120  157.7528 C.2     1  UNL1        0.3039
      6 O         141.9850  138.4609  156.5744 O.2     1  UNL1       -0.2526
      7 N         142.8582  136.2528  157.6290 N.am    1  UNL1       -0.2901
      8 C         142.4321  139.8814  159.1787 C.3     1  UNL1        0.0954
      9 C         142.6557  140.5918  160.4808 C.3     1  UNL1        0.0309
     10 H         143.2182  135.7613  158.4024 H       1  UNL1        0.1509
     11 C         143.0465  141.5602  165.1364 C.ar    1  UNL1        0.2033
     12 N         144.4965  141.7326  164.7934 N.ar    1  UNL1       -0.0560
     13 O         144.7321  141.1103  163.4490 O.2     1  UNL1       -0.3370
     14 C         143.4276  140.5533  162.9612 C.ar    1  UNL1        0.2362
     15 N         142.3859  140.8313  164.0040 N.ar    1  UNL1       -0.1908
     16 C         141.0320  142.9801  168.9015 C.ar    1  UNL1        0.0140
     17 C         142.4610  142.5257  168.9410 C.ar    1  UNL1        0.0012
     18 C         143.1325  142.0524  167.6860 C.ar    1  UNL1        0.0032
     19 C         142.3750  142.0335  166.3914 C.ar    1  UNL1        0.0391
     20 C         140.9460  142.4878  166.3520 C.ar    1  UNL1        0.0032
     21 C         140.2746  142.9611  167.6070 C.ar    1  UNL1        0.0012
     22 O         139.9565  144.8913  170.2944 O.co2   1  UNL1       -0.5446
     23 C         140.3605  143.4534  170.1565 C.2     1  UNL1        0.0729
     24 O         140.0931  142.4888  171.2736 O.co2   1  UNL1       -0.5446
     25 C         142.6347  135.5425  156.3269 C.3     1  UNL1        0.0774
     26 C         142.0511  135.5155  154.9454 C.3     1  UNL1        0.0259
     27 C         142.8311  134.3392  155.4532 C.3     1  UNL1        0.0420
     28 C         143.3948  132.9653  155.2419 C.ar    1  UNL1       -0.0208
     29 C         142.9467  132.1427  154.0703 C.ar    1  UNL1       -0.0042
     30 C         143.5104  130.7688  153.8590 C.ar    1  UNL1       -0.0003
     31 C         144.5222  130.2175  154.8193 C.ar    1  UNL1       -0.0000
     32 C         144.9703  131.0400  155.9909 C.ar    1  UNL1       -0.0003
     33 C         144.4066  132.4139  156.2022 C.ar    1  UNL1       -0.0042
@<TRIPOS>UNITY_ATOM_ATTR
22 1
charge -1
@<TRIPOS>BOND
     1    22    23   ar
     2    23    24   ar
     3    23    16    1
     4    16    17   ar
     5    17    18   ar
     6    18    19   ar
     7    19    11    1
     8    11    12   ar
     9    12    13   ar
    10    13    14   ar
    11    14     1    1
    12     1     2    1
    13     2     3    1
    14     3     4    1
    15     4     5   am
    16     5     6    2
    17     5     7   am
    18     7    25    1
    19    25    26    1
    20    26    27    1
    21    27    28    1
    22    28    29   ar
    23    29    30   ar
    24    30    31   ar
    25    31    32   ar
    26    32    33   ar
    27     4     8    1
    28     8     9    1
    29    14    15   ar
    30    19    20   ar
    31    20    21   ar
    32    21    16   ar
    33    15    11   ar
    34     9     1    1
    35    27    25    1
    36    33    28   ar
    37     7    10    1
@<TRIPOS>MOLECULE
*****
 33 37 0 0 0
SMALL
GASTEIGER

@<TRIPOS>ATOM
      1 C         141.1489  140.3839  161.4115 C.3     1  UNL1        0.0827
      2 C         139.9895  139.9581  160.5604 C.3     1  UNL1        0.0309
      3 C         140.2194  139.0857  159.3621 C.3     1  UNL1        0.0954
      4 N         141.6086  138.6391  159.0149 N.am    1  UNL1       -0.2642
      5 C         141.8384  137.7666  157.8165 C.2     1  UNL1        0.3039
      6 O         143.2276  137.3199  157.4693 O.2     1  UNL1       -0.2526
      7 N         140.6790  137.3408  156.9653 N.am    1  UNL1       -0.2901
      8 C         142.7679  139.0648  159.8660 C.3     1  UNL1        0.0954
      9 C         142.5381  139.9372  161.0644 C.3     1  UNL1        0.0309
     10 H         139.7672  137.6340  157.1932 H       1  UNL1        0.1509
     11 C         141.0186  142.1603  164.8602 C.ar    1  UNL1        0.2033
     12 N         140.1126  143.0374  164.0479 N.ar    1  UNL1       -0.0560
     13 O         140.0512  142.4788  162.6571 O.2     1  UNL1       -0.3370
     14 C         140.9192  141.2563  162.6099 C.ar    1  UNL1        0.2362
     15 N         141.5170  141.0595  163.9714 N.ar    1  UNL1       -0.1908
     16 C         142.0585  142.7309  169.2010 C.ar    1  UNL1        0.0140
     17 C         143.0963  142.2302  168.2407 C.ar    1  UNL1        0.0012
     18 C         142.7497  142.0400  166.7938 C.ar    1  UNL1        0.0032
     19 C         141.3652  142.3505  166.3071 C.ar    1  UNL1        0.0391
     20 C         140.3274  142.8512  167.2674 C.ar    1  UNL1        0.0032
     21 C         140.6741  143.0414  168.7144 C.ar    1  UNL1        0.0012
     22 O         143.4004  143.9692  171.0493 O.co2   1  UNL1       -0.5446
     23 C         142.4051  142.9211  170.6480 C.2     1  UNL1        0.0729
     24 O         141.7565  142.0633  171.6936 O.co2   1  UNL1       -0.5446
     25 C         140.9088  136.4684  155.7670 C.3     1  UNL1        0.0774
     26 C         140.7930  136.2331  154.2901 C.3     1  UNL1        0.0259
     27 C         141.4225  135.1926  155.1682 C.3     1  UNL1        0.0420
     28 C         142.0825  133.8553  155.3296 C.ar    1  UNL1       -0.0208
     29 C         141.2892  132.5983  155.1288 C.ar    1  UNL1       -0.0042
     30 C         141.9492  131.2610  155.2901 C.ar    1  UNL1       -0.0003
     31 C         143.4026  131.1808  155.6522 C.ar    1  UNL1       -0.0000
     32 C         144.1960  132.4379  155.8529 C.ar    1  UNL1       -0.0003
     33 C         143.5360  133.7751  155.6916 C.ar    1  UNL1       -0.0042
@<TRIPOS>UNITY_ATOM_ATTR
22 1
charge -1
@<TRIPOS>BOND
     1    22    23   ar
     2    23    24   ar
     3    23    16    1
     4    16    17   ar
     5    17    18   ar
     6    18    19   ar
     7    19    11    1
     8    11    12   ar
     9    12    13   ar
    10    13    14   ar
    11    14     1    1
    12     1     2    1
    13     2     3    1
    14     3     4    1
    15     4     5   am
    16     5     6    2
    17     5     7   am
    18     7    25    1
    19    25    26    1
    20    26    27    1
    21    27    28    1
    22    28    29   ar
    23    29    30   ar
    24    30    31   ar
    25    31    32   ar
    26    32    33   ar
    27     4     8    1
    28     8     9    1
    29    14    15   ar
    30    19    20   ar
    31    20    21   ar
    32    21    16   ar
    33    15    11   ar
    34     9     1    1
    35    27    25    1
    36    33    28   ar
    37     7    10    1
@<TRIPOS>MOLECULE
*****
 33 37 0 0 0
SMALL
GASTEIGER

@<TRIPOS>ATOM
      1 C         140.0221  139.1556  161.9854 C.3     1  UNL1        0.0827
      2 C         141.4262  138.6578  161.8099 C.3     1  UNL1        0.0309
      3 C         141.9144  138.2544  160.4502 C.3     1  UNL1        0.0954
      4 N         140.9986  138.3489  159.2659 N.am    1  UNL1       -0.2642
      5 C         141.4868  137.9456  157.9061 C.2     1  UNL1        0.3039
      6 O         140.5710  138.0401  156.7219 O.2     1  UNL1       -0.2526
      7 N         142.8909  137.4477  157.7306 N.am    1  UNL1       -0.2901
      8 C         139.5946  138.8468  159.4414 C.3     1  UNL1        0.0954
      9 C         139.1064  139.2502  160.8012 C.3     1  UNL1        0.0309
     10 H         143.4919  137.3856  158.5079 H       1  UNL1        0.1509
     11 C         139.4864  140.3367  165.6438 C.ar    1  UNL1        0.2033
     12 N         138.0788  140.0229  165.2314 N.ar    1  UNL1       -0.0560
     13 O         138.1081  139.5422  163.8108 O.2     1  UNL1       -0.3370
     14 C         139.5339  139.5590  163.3451 C.ar    1  UNL1        0.2362
     15 N         140.3857  140.0500  164.4780 N.ar    1  UNL1       -0.1908
     16 C         140.7836  141.8691  169.6710 C.ar    1  UNL1        0.0140
     17 C         140.0770  140.5504  169.5624 C.ar    1  UNL1        0.0012
     18 C         139.6445  140.0397  168.2199 C.ar    1  UNL1        0.0032
     19 C         139.9188  140.8475  166.9862 C.ar    1  UNL1        0.0391
     20 C         140.6255  142.1661  167.0949 C.ar    1  UNL1        0.0032
     21 C         141.0579  142.6769  168.4373 C.ar    1  UNL1        0.0012
     22 O         142.4783  143.1801  171.1404 O.co2   1  UNL1       -0.5446
     23 C         141.2160  142.3798  171.0135 C.2     1  UNL1        0.0729
     24 O         140.3861  142.0904  172.2290 O.co2   1  UNL1       -0.5446
     25 C         143.3791  137.0443  156.3709 C.3     1  UNL1        0.0774
     26 C         144.1965  137.3311  155.1463 C.3     1  UNL1        0.0259
     27 C         143.4075  136.0589  155.2403 C.3     1  UNL1        0.0420
     28 C         142.9683  134.7554  154.6419 C.ar    1  UNL1       -0.0208
     29 C         143.3268  133.4631  155.3137 C.ar    1  UNL1       -0.0042
     30 C         142.8876  132.1596  154.7153 C.ar    1  UNL1       -0.0003
     31 C         142.0899  132.1486  153.4451 C.ar    1  UNL1       -0.0000
     32 C         141.7314  133.4409  152.7733 C.ar    1  UNL1       -0.0003
     33 C         142.1706  134.7443  153.3716 C.ar    1  UNL1       -0.0042
@<TRIPOS>UNITY_ATOM_ATTR
22 1
charge -1
@<TRIPOS>BOND
     1    22    23   ar
     2    23    24   ar
     3    23    16    1
     4    16    17   ar
     5    17    18   ar
     6    18    19   ar
     7    19    11    1
     8    11    12   ar
     9    12    13   ar
    10    13    14   ar
    11    14     1    1
    12     1     2    1
    13     2     3    1
    14     3     4    1
    15     4     5   am
    16     5     6    2
    17     5     7   am
    18     7    25    1
    19    25    26    1
    20    26    27    1
    21    27    28    1
    22    28    29   ar
    23    29    30   ar
    24    30    31   ar
    25    31    32   ar
    26    32    33   ar
    27     4     8    1
    28     8     9    1
    29    14    15   ar
    30    19    20   ar
    31    20    21   ar
    32    21    16   ar
    33    15    11   ar
    34     9     1    1
    35    27    25    1
    36    33    28   ar
    37     7    10    1
@<TRIPOS>MOLECULE
*****
 33 37 0 0 0
SMALL
GASTEIGER

@<TRIPOS>ATOM
      1 C         140.4259  143.5208  158.7045 C.3     1  UNL1        0.0827
      2 C         140.1030  143.7827  160.1457 C.3     1  UNL1        0.0309
      3 C         140.6438  142.8769  161.2120 C.3     1  UNL1        0.0954
      4 N         141.5075  141.7093  160.8371 N.am    1  UNL1       -0.2642
      5 C         142.0484  140.8035  161.9035 C.2     1  UNL1        0.3039
      6 O         142.9121  139.6358  161.5286 O.2     1  UNL1       -0.2526
      7 N         141.7254  141.0653  163.3447 N.am    1  UNL1       -0.2901
      8 C         141.8305  141.4474  159.3960 C.3     1  UNL1        0.0954
      9 C         141.2897  142.3532  158.3296 C.3     1  UNL1        0.0309
     10 H         141.1585  141.8317  163.5907 H       1  UNL1        0.1509
     11 C         139.3015  146.4170  156.3778 C.ar    1  UNL1        0.2033
     12 N         138.8044  145.2239  155.6165 N.ar    1  UNL1       -0.0560
     13 O         139.1651  143.9938  156.3954 O.2     1  UNL1       -0.3370
     14 C         139.8851  144.4266  157.6381 C.ar    1  UNL1        0.2362
     15 N         139.9694  145.9242  157.6272 N.ar    1  UNL1       -0.1908
     16 C         138.8656  150.7191  155.1321 C.ar    1  UNL1        0.0140
     17 C         138.3202  150.2616  156.4524 C.ar    1  UNL1        0.0012
     18 C         138.4655  148.8276  156.8676 C.ar    1  UNL1        0.0032
     19 C         139.1562  147.8510  155.9625 C.ar    1  UNL1        0.0391
     20 C         139.7016  148.3085  154.6422 C.ar    1  UNL1        0.0032
     21 C         139.5563  149.7425  154.2270 C.ar    1  UNL1        0.0012
     22 O         138.8204  153.2443  155.7411 O.co2   1  UNL1       -0.5446
     23 C         138.7203  152.1531  154.7168 C.2     1  UNL1        0.0729
     24 O         138.4749  152.4959  153.2774 O.co2   1  UNL1       -0.5446
     25 C         142.2662  140.1596  164.4111 C.3     1  UNL1        0.0774
     26 C         143.2084  139.0732  164.8378 C.3     1  UNL1        0.0259
     27 C         142.2606  139.6771  165.8313 C.3     1  UNL1        0.0420
     28 C         141.7102  139.7471  167.2250 C.ar    1  UNL1       -0.0208
     29 C         142.5982  139.4535  168.3977 C.ar    1  UNL1       -0.0042
     30 C         142.0478  139.5235  169.7913 C.ar    1  UNL1       -0.0003
     31 C         140.6095  139.8872  170.0121 C.ar    1  UNL1       -0.0000
     32 C         139.7215  140.1808  168.8394 C.ar    1  UNL1       -0.0003
     33 C         140.2719  140.1108  167.4459 C.ar    1  UNL1       -0.0042
@<TRIPOS>UNITY_ATOM_ATTR
22 1
charge -1
@<TRIPOS>BOND
     1    22    23   ar
     2    23    24   ar
     3    23    16    1
     4    16    17   ar
     5    17    18   ar
     6    18    19   ar
     7    19    11    1
     8    11    12   ar
     9    12    13   ar
    10    13    14   ar
    11    14     1    1
    12     1     2    1
    13     2     3    1
    14     3     4    1
    15     4     5   am
    16     5     6    2
    17     5     7   am
    18     7    25    1
    19    25    26    1
    20    26    27    1
    21    27    28    1
    22    28    29   ar
    23    29    30   ar
    24    30    31   ar
    25    31    32   ar
    26    32    33   ar
    27     4     8    1
    28     8     9    1
    29    14    15   ar
    30    19    20   ar
    31    20    21   ar
    32    21    16   ar
    33    15    11   ar
    34     9     1    1
    35    27    25    1
    36    33    28   ar
    37     7    10    1
@<TRIPOS>MOLECULE
*****
 33 37 0 0 0
SMALL
GASTEIGER

@<TRIPOS>ATOM
      1 C         142.8864  143.3723  161.7069 C.3     1  UNL1        0.0827
      2 C         141.7508  144.2639  161.2999 C.3     1  UNL1        0.0309
      3 C         141.4990  144.5418  159.8476 C.3     1  UNL1        0.0954
      4 N         142.3827  143.9282  158.8023 N.am    1  UNL1       -0.2642
      5 C         142.1308  144.2062  157.3499 C.2     1  UNL1        0.3039
      6 O         143.0144  143.5926  156.3046 O.2     1  UNL1       -0.2526
      7 N         140.9953  145.0978  156.9428 N.am    1  UNL1       -0.2901
      8 C         143.5181  143.0367  159.2093 C.3     1  UNL1        0.0954
      9 C         143.7700  142.7587  160.6616 C.3     1  UNL1        0.0309
     10 H         140.4153  145.5006  157.6289 H       1  UNL1        0.1509
     11 C         142.8049  142.4797  165.4834 C.ar    1  UNL1        0.2033
     12 N         144.2467  142.8531  165.3049 N.ar    1  UNL1       -0.0560
     13 O         144.4527  143.2330  163.8685 O.2     1  UNL1       -0.3370
     14 C         143.1382  143.0943  163.1592 C.ar    1  UNL1        0.2362
     15 N         142.1199  142.6287  164.1574 N.ar    1  UNL1       -0.1908
     16 C         140.8738  141.1465  169.3232 C.ar    1  UNL1        0.0140
     17 C         140.1213  141.0429  168.0298 C.ar    1  UNL1        0.0012
     18 C         140.7650  141.4873  166.7499 C.ar    1  UNL1        0.0032
     19 C         142.1612  142.0353  166.7633 C.ar    1  UNL1        0.0391
     20 C         142.9137  142.1389  168.0567 C.ar    1  UNL1        0.0032
     21 C         142.2700  141.6945  169.3366 C.ar    1  UNL1        0.0012
     22 O         138.9826  139.8701  170.5657 O.co2   1  UNL1       -0.5446
     23 C         140.2301  140.7020  170.6031 C.2     1  UNL1        0.0729
     24 O         140.8340  141.0895  171.9203 O.co2   1  UNL1       -0.5446
     25 C         140.7434  145.3758  155.4905 C.3     1  UNL1        0.0774
     26 C         140.5810  144.8838  154.0828 C.3     1  UNL1        0.0259
     27 C         140.4695  146.3493  154.3827 C.3     1  UNL1        0.0420
     28 C         140.2470  147.7575  153.9162 C.ar    1  UNL1       -0.0208
     29 C         140.6805  148.1691  152.5405 C.ar    1  UNL1       -0.0042
     30 C         140.4579  149.5773  152.0740 C.ar    1  UNL1       -0.0003
     31 C         139.8020  150.5737  152.9832 C.ar    1  UNL1       -0.0000
     32 C         139.3685  150.1620  154.3589 C.ar    1  UNL1       -0.0003
     33 C         139.5910  148.7540  154.8254 C.ar    1  UNL1       -0.0042
@<TRIPOS>UNITY_ATOM_ATTR
22 1
charge -1
@<TRIPOS>BOND
     1    22    23   ar
     2    23    24   ar
     3    23    16    1
     4    16    17   ar
     5    17    18   ar
     6    18    19   ar
     7    19    11    1
     8    11    12   ar
     9    12    13   ar
    10    13    14   ar
    11    14     1    1
    12     1     2    1
    13     2     3    1
    14     3     4    1
    15     4     5   am
    16     5     6    2
    17     5     7   am
    18     7    25    1
    19    25    26    1
    20    26    27    1
    21    27    28    1
    22    28    29   ar
    23    29    30   ar
    24    30    31   ar
    25    31    32   ar
    26    32    33   ar
    27     4     8    1
    28     8     9    1
    29    14    15   ar
    30    19    20   ar
    31    20    21   ar
    32    21    16   ar
    33    15    11   ar
    34     9     1    1
    35    27    25    1
    36    33    28   ar
    37     7    10    1
@<TRIPOS>MOLECULE
*****
 33 37 0 0 0
SMALL
GASTEIGER

@<TRIPOS>ATOM
      1 C         142.6220  139.0437  159.6379 C.3     1  UNL1        0.0827
      2 C         141.2048  139.3641  160.0107 C.3     1  UNL1        0.0309
      3 C         140.9192  140.2044  161.2199 C.3     1  UNL1        0.0954
      4 N         142.0507  140.7243  162.0563 N.am    1  UNL1       -0.2642
      5 C         141.7650  141.5647  163.2656 C.2     1  UNL1        0.3039
      6 O         142.8964  142.0846  164.1019 O.2     1  UNL1       -0.2526
      7 N         140.3478  141.8851  163.6384 N.am    1  UNL1       -0.2901
      8 C         143.4677  140.4039  161.6835 C.3     1  UNL1        0.0954
      9 C         143.7535  139.5636  160.4743 C.3     1  UNL1        0.0309
     10 H         139.6052  141.5439  163.0895 H       1  UNL1        0.1509
     11 C         143.0390  136.3167  156.9074 C.ar    1  UNL1        0.2033
     12 N         143.6557  137.5036  156.2284 N.ar    1  UNL1       -0.0560
     13 O         143.5746  138.6695  157.1686 O.2     1  UNL1       -0.3370
     14 C         142.9077  138.2034  158.4287 C.ar    1  UNL1        0.2362
     15 N         142.5768  136.7492  158.2673 N.ar    1  UNL1       -0.1908
     16 C         142.6450  132.1844  155.1701 C.ar    1  UNL1        0.0140
     17 C         143.8456  132.5393  155.9963 C.ar    1  UNL1        0.0012
     18 C         143.9769  133.9167  156.5754 C.ar    1  UNL1        0.0032
     19 C         142.9077  134.9393  156.3283 C.ar    1  UNL1        0.0391
     20 C         141.7071  134.5844  155.5021 C.ar    1  UNL1        0.0032
     21 C         141.5758  133.2069  154.9230 C.ar    1  UNL1        0.0012
     22 O         141.2265  130.0510  154.7384 O.co2   1  UNL1       -0.5446
     23 C         142.5136  130.8069  154.5910 C.2     1  UNL1        0.0729
     24 O         143.6694  130.1854  153.8645 O.co2   1  UNL1       -0.5446
     25 C         140.0621  142.7255  164.8476 C.3     1  UNL1        0.0774
     26 C         139.3109  143.8466  165.5024 C.3     1  UNL1        0.0259
     27 C         140.3183  143.0598  166.2872 C.3     1  UNL1        0.0420
     28 C         141.0480  142.7986  167.5716 C.ar    1  UNL1       -0.0208
     29 C         142.3984  142.1462  167.5476 C.ar    1  UNL1       -0.0042
     30 C         143.1280  141.8850  168.8320 C.ar    1  UNL1       -0.0003
     31 C         142.5071  142.2762  170.1401 C.ar    1  UNL1       -0.0000
     32 C         141.1567  142.9286  170.1640 C.ar    1  UNL1       -0.0003
     33 C         140.4271  143.1898  168.8798 C.ar    1  UNL1       -0.0042
@<TRIPOS>UNITY_ATOM_ATTR
22 1
charge -1
@<TRIPOS>BOND
     1    22    23   ar
     2    23    24   ar
     3    23    16    1
     4    16    17   ar
     5    17    18   ar
     6    18    19   ar
     7    19    11    1
     8    11    12   ar
     9    12    13   ar
    10    13    14   ar
    11    14     1    1
    12     1     2    1
    13     2     3    1
    14     3     4    1
    15     4     5   am
    16     5     6    2
    17     5     7   am
    18     7    25    1
    19    25    26    1
    20    26    27    1
    21    27    28    1
    22    28    29   ar
    23    29    30   ar
    24    30    31   ar
    25    31    32   ar
    26    32    33   ar
    27     4     8    1
    28     8     9    1
    29    14    15   ar
    30    19    20   ar
    31    20    21   ar
    32    21    16   ar
    33    15    11   ar
    34     9     1    1
    35    27    25    1
    36    33    28   ar
    37     7    10    1
