@<TRIPOS>MOLECULE
*****
 29 32 0 0 0
SMALL
GASTEIGER

@<TRIPOS>ATOM
      1 C         139.2262  139.1940  164.5368 C.ar    1  UNL1        0.0681
      2 C         139.8262  140.3646  165.2577 C.ar    1  UNL1        0.0208
      3 C         139.6090  140.5285  166.7328 C.ar    1  UNL1        0.0384
      4 C         138.7918  139.5219  167.4869 C.ar    1  UNL1        0.1386
      5 C         138.1917  138.3513  166.7660 C.ar    1  UNL1        0.0384
      6 C         138.4089  138.1874  165.2909 C.ar    1  UNL1        0.0208
      7 C         141.2726  137.2453  163.5294 C.3     1  UNL1        0.0723
      8 C         140.4666  138.0558  162.5579 C.ar    1  UNL1        0.1268
      9 N         140.6839  137.8918  161.0828 N.ar    1  UNL1       -0.2318
     10 C         139.8779  138.7023  160.1114 C.ar    1  UNL1        0.0872
     11 C         140.0952  138.5383  158.6363 C.ar    1  UNL1        0.0193
     12 C         139.2892  139.3487  157.6649 C.ar    1  UNL1        0.0015
     13 C         138.2660  140.3231  158.1686 C.ar    1  UNL1        0.0003
     14 C         138.0487  140.4870  159.6437 C.ar    1  UNL1        0.0063
     15 C         138.8547  139.6766  160.6151 C.ar    1  UNL1        0.0742
     16 C         138.6375  139.8405  162.0902 C.ar    1  UNL1        0.2669
     17 O         137.6142  140.8148  162.5939 O.2     1  UNL1       -0.2665
     18 N         139.4434  139.0301  163.0616 N.ar    1  UNL1       -0.2626
     19 O         138.5745  139.6857  168.9621 O.3     1  UNL1       -0.4754
     20 C         139.5630  140.4581  169.7845 C.3     1  UNL1        0.2068
     21 C         140.8242  139.7977  170.2569 C.3     1  UNL1        0.0646
     22 C         142.1572  140.3910  169.9090 C.3     1  UNL1        0.0759
     23 N         142.5862  140.4824  168.4746 N.3     1  UNL1       -0.2726
     24 C         142.7788  141.8706  167.9400 C.3     1  UNL1        0.0721
     25 C         143.1986  142.2928  166.5632 C.3     1  UNL1        0.0173
     26 C         143.5295  141.4310  165.3809 C.3     1  UNL1        0.0015
     27 C         143.5223  139.9342  165.2834 C.3     1  UNL1        0.0015
     28 C         143.1824  138.9294  166.3441 C.3     1  UNL1        0.0173
     29 C         142.7658  139.1734  167.7644 C.3     1  UNL1        0.0721
@<TRIPOS>BOND
     1     7     8    1
     2     8     9   ar
     3     9    10   ar
     4    10    11   ar
     5    11    12   ar
     6    12    13   ar
     7    13    14   ar
     8    14    15   ar
     9    15    16   ar
    10    16    17    2
    11    16    18   ar
    12    18     1    1
    13     1     2   ar
    14     2     3   ar
    15     3     4   ar
    16     4    19    1
    17    19    20    1
    18    20    21    1
    19    21    22    1
    20    22    23    1
    21    23    24    1
    22    24    25    1
    23    25    26    1
    24    26    27    1
    25    27    28    1
    26    28    29    1
    27     4     5   ar
    28     5     6   ar
    29    18     8   ar
    30     6     1   ar
    31    15    10   ar
    32    29    23    1
@<TRIPOS>MOLECULE
*****
 29 32 0 0 0
SMALL
GASTEIGER

@<TRIPOS>ATOM
      1 C         139.3320  141.4824  164.7534 C.ar    1  UNL1        0.0681
      2 C         138.3243  142.5906  164.6737 C.ar    1  UNL1        0.0208
      3 C         137.7878  143.0221  163.3410 C.ar    1  UNL1        0.0384
      4 C         138.2592  142.3454  162.0881 C.ar    1  UNL1        0.1386
      5 C         139.2669  141.2373  162.1678 C.ar    1  UNL1        0.0384
      6 C         139.8033  140.8057  163.5005 C.ar    1  UNL1        0.0208
      7 C         137.9825  139.2734  166.2696 C.3     1  UNL1        0.0723
      8 C         139.1937  139.9464  166.8443 C.ar    1  UNL1        0.1268
      9 N         139.7300  139.5149  168.1769 N.ar    1  UNL1       -0.2318
     10 C         140.9412  140.1879  168.7516 C.ar    1  UNL1        0.0872
     11 C         141.4776  139.7564  170.0843 C.ar    1  UNL1        0.0193
     12 C         142.6887  140.4294  170.6588 C.ar    1  UNL1        0.0015
     13 C         143.3634  141.5340  169.9008 C.ar    1  UNL1        0.0003
     14 C         142.8271  141.9655  168.5681 C.ar    1  UNL1        0.0063
     15 C         141.6160  141.2924  167.9935 C.ar    1  UNL1        0.0742
     16 C         141.0795  141.7239  166.6607 C.ar    1  UNL1        0.2669
     17 O         141.7543  142.8285  165.9026 O.2     1  UNL1       -0.2665
     18 N         139.8684  141.0509  166.0862 N.ar    1  UNL1       -0.2626
     19 O         137.7228  142.7769  160.7554 O.3     1  UNL1       -0.4754
     20 C         138.5868  142.6825  159.5329 C.3     1  UNL1        0.2068
     21 C         139.7252  143.6407  159.3432 C.3     1  UNL1        0.0646
     22 C         141.1223  143.2249  159.6971 C.3     1  UNL1        0.0759
     23 N         141.7789  143.7740  160.9289 N.3     1  UNL1       -0.2726
     24 C         143.2099  143.3751  161.1365 C.3     1  UNL1        0.0721
     25 C         144.1331  143.7530  162.2567 C.3     1  UNL1        0.0173
     26 C         143.8533  144.6232  163.4461 C.3     1  UNL1        0.0015
     27 C         142.5813  145.3303  163.8089 C.3     1  UNL1        0.0015
     28 C         141.2747  145.3420  163.0721 C.3     1  UNL1        0.0173
     29 C         140.9176  144.6493  161.7904 C.3     1  UNL1        0.0721
@<TRIPOS>BOND
     1     7     8    1
     2     8     9   ar
     3     9    10   ar
     4    10    11   ar
     5    11    12   ar
     6    12    13   ar
     7    13    14   ar
     8    14    15   ar
     9    15    16   ar
    10    16    17    2
    11    16    18   ar
    12    18     1    1
    13     1     2   ar
    14     2     3   ar
    15     3     4   ar
    16     4    19    1
    17    19    20    1
    18    20    21    1
    19    21    22    1
    20    22    23    1
    21    23    24    1
    22    24    25    1
    23    25    26    1
    24    26    27    1
    25    27    28    1
    26    28    29    1
    27     4     5   ar
    28     5     6   ar
    29    18     8   ar
    30     6     1   ar
    31    15    10   ar
    32    29    23    1
@<TRIPOS>MOLECULE
*****
 29 32 0 0 0
SMALL
GASTEIGER

@<TRIPOS>ATOM
      1 C         139.5250  141.5299  164.5978 C.ar    1  UNL1        0.0681
      2 C         138.1979  142.2146  164.4563 C.ar    1  UNL1        0.0208
      3 C         137.7220  142.6558  163.1040 C.ar    1  UNL1        0.0384
      4 C         138.5731  142.4123  161.8932 C.ar    1  UNL1        0.1386
      5 C         139.9003  141.7277  162.0346 C.ar    1  UNL1        0.0384
      6 C         140.3762  141.2865  163.3869 C.ar    1  UNL1        0.0208
      7 C         138.0938  139.3270  166.0464 C.3     1  UNL1        0.0723
      8 C         139.2853  139.9873  166.6745 C.ar    1  UNL1        0.1268
      9 N         139.7612  139.5460  168.0268 N.ar    1  UNL1       -0.2318
     10 C         140.9527  140.2063  168.6549 C.ar    1  UNL1        0.0872
     11 C         141.4286  139.7651  170.0072 C.ar    1  UNL1        0.0193
     12 C         142.6200  140.4254  170.6352 C.ar    1  UNL1        0.0015
     13 C         143.3356  141.5268  169.9109 C.ar    1  UNL1        0.0003
     14 C         142.8598  141.9680  168.5586 C.ar    1  UNL1        0.0063
     15 C         141.6683  141.3078  167.9306 C.ar    1  UNL1        0.0742
     16 C         141.1924  141.7490  166.5782 C.ar    1  UNL1        0.2669
     17 O         141.9080  142.8505  165.8538 O.2     1  UNL1       -0.2665
     18 N         140.0009  141.0887  165.9502 N.ar    1  UNL1       -0.2626
     19 O         138.0972  142.8535  160.5408 O.3     1  UNL1       -0.4754
     20 C         138.5756  142.1437  159.3090 C.3     1  UNL1        0.2068
     21 C         138.0293  140.7902  158.9635 C.3     1  UNL1        0.0646
     22 C         138.9455  139.6039  158.9061 C.3     1  UNL1        0.0759
     23 N         139.4157  138.9573  160.1753 N.3     1  UNL1       -0.2726
     24 C         138.3534  138.6828  161.1982 C.3     1  UNL1        0.0721
     25 C         138.4991  138.0540  162.5523 C.3     1  UNL1        0.0173
     26 C         139.7429  137.5443  163.2178 C.3     1  UNL1        0.0015
     27 C         141.1484  137.5376  162.6937 C.3     1  UNL1        0.0015
     28 C         141.6571  138.0389  161.3746 C.3     1  UNL1        0.0173
     29 C         140.8859  138.6707  160.2538 C.3     1  UNL1        0.0721
@<TRIPOS>BOND
     1     7     8    1
     2     8     9   ar
     3     9    10   ar
     4    10    11   ar
     5    11    12   ar
     6    12    13   ar
     7    13    14   ar
     8    14    15   ar
     9    15    16   ar
    10    16    17    2
    11    16    18   ar
    12    18     1    1
    13     1     2   ar
    14     2     3   ar
    15     3     4   ar
    16     4    19    1
    17    19    20    1
    18    20    21    1
    19    21    22    1
    20    22    23    1
    21    23    24    1
    22    24    25    1
    23    25    26    1
    24    26    27    1
    25    27    28    1
    26    28    29    1
    27     4     5   ar
    28     5     6   ar
    29    18     8   ar
    30     6     1   ar
    31    15    10   ar
    32    29    23    1
@<TRIPOS>MOLECULE
*****
 29 32 0 0 0
SMALL
GASTEIGER

@<TRIPOS>ATOM
      1 C         139.8027  139.3876  164.9508 C.ar    1  UNL1        0.0681
      2 C         139.1910  140.3180  163.9457 C.ar    1  UNL1        0.0208
      3 C         139.0315  139.8816  162.5195 C.ar    1  UNL1        0.0384
      4 C         139.4838  138.5148  162.0984 C.ar    1  UNL1        0.1386
      5 C         140.0955  137.5844  163.1035 C.ar    1  UNL1        0.0384
      6 C         140.2550  138.0208  164.5297 C.ar    1  UNL1        0.0208
      7 C         137.7607  138.5929  166.9999 C.3     1  UNL1        0.0723
      8 C         138.9412  139.4268  167.4016 C.ar    1  UNL1        0.1268
      9 N         139.1006  139.8632  168.8278 N.ar    1  UNL1       -0.2318
     10 C         140.2811  140.6970  169.2295 C.ar    1  UNL1        0.0872
     11 C         140.4405  141.1334  170.6557 C.ar    1  UNL1        0.0193
     12 C         141.6209  141.9672  171.0574 C.ar    1  UNL1        0.0015
     13 C         142.6419  142.3646  170.0328 C.ar    1  UNL1        0.0003
     14 C         142.4825  141.9281  168.6066 C.ar    1  UNL1        0.0063
     15 C         141.3021  141.0943  168.2050 C.ar    1  UNL1        0.0742
     16 C         141.1426  140.6579  166.7787 C.ar    1  UNL1        0.2669
     17 O         142.1636  141.0552  165.7542 O.2     1  UNL1       -0.2665
     18 N         139.9622  139.8241  166.3771 N.ar    1  UNL1       -0.2626
     19 O         139.3243  138.0783  160.6722 O.3     1  UNL1       -0.4754
     20 C         140.2686  138.5852  159.6227 C.3     1  UNL1        0.2068
     21 C         141.7304  138.7197  159.9310 C.3     1  UNL1        0.0646
     22 C         142.3203  140.0738  160.1922 C.3     1  UNL1        0.0759
     23 N         143.2703  140.2700  161.3362 N.3     1  UNL1       -0.2726
     24 C         143.2715  139.1872  162.3743 C.3     1  UNL1        0.0721
     25 C         144.0963  139.0900  163.6235 C.3     1  UNL1        0.0173
     26 C         145.1234  140.0517  164.1432 C.3     1  UNL1        0.0015
     27 C         145.5796  141.3480  163.5421 C.3     1  UNL1        0.0015
     28 C         145.1212  142.0029  162.2727 C.3     1  UNL1        0.0173
     29 C         144.0935  141.5232  161.2911 C.3     1  UNL1        0.0721
@<TRIPOS>BOND
     1     7     8    1
     2     8     9   ar
     3     9    10   ar
     4    10    11   ar
     5    11    12   ar
     6    12    13   ar
     7    13    14   ar
     8    14    15   ar
     9    15    16   ar
    10    16    17    2
    11    16    18   ar
    12    18     1    1
    13     1     2   ar
    14     2     3   ar
    15     3     4   ar
    16     4    19    1
    17    19    20    1
    18    20    21    1
    19    21    22    1
    20    22    23    1
    21    23    24    1
    22    24    25    1
    23    25    26    1
    24    26    27    1
    25    27    28    1
    26    28    29    1
    27     4     5   ar
    28     5     6   ar
    29    18     8   ar
    30     6     1   ar
    31    15    10   ar
    32    29    23    1
@<TRIPOS>MOLECULE
*****
 29 32 0 0 0
SMALL
GASTEIGER

@<TRIPOS>ATOM
      1 C         143.0423  139.8909  164.5827 C.ar    1  UNL1        0.0681
      2 C         142.1273  139.1136  163.6836 C.ar    1  UNL1        0.0208
      3 C         142.5000  138.8878  162.2483 C.ar    1  UNL1        0.0384
      4 C         143.7877  139.4392  161.7122 C.ar    1  UNL1        0.1386
      5 C         144.7028  140.2165  162.6114 C.ar    1  UNL1        0.0384
      6 C         144.3301  140.4424  164.0466 C.ar    1  UNL1        0.0208
      7 C         143.8900  137.9209  166.6804 C.3     1  UNL1        0.0723
      8 C         143.0934  139.1318  167.0669 C.ar    1  UNL1        0.1268
      9 N         142.7206  139.3575  168.5022 N.ar    1  UNL1       -0.2318
     10 C         141.9240  140.5684  168.8887 C.ar    1  UNL1        0.0872
     11 C         141.5513  140.7942  170.3240 C.ar    1  UNL1        0.0193
     12 C         140.7548  142.0050  170.7104 C.ar    1  UNL1        0.0015
     13 C         140.3310  142.9901  169.6615 C.ar    1  UNL1        0.0003
     14 C         140.7037  142.7643  168.2263 C.ar    1  UNL1        0.0063
     15 C         141.5002  141.5535  167.8398 C.ar    1  UNL1        0.0742
     16 C         141.8730  141.3276  166.4045 C.ar    1  UNL1        0.2669
     17 O         141.4492  142.3127  165.3556 O.2     1  UNL1       -0.2665
     18 N         142.6696  140.1168  166.0181 N.ar    1  UNL1       -0.2626
     19 O         144.1605  139.2134  160.2769 O.3     1  UNL1       -0.4754
     20 C         143.8887  140.2774  159.2551 C.3     1  UNL1        0.2068
     21 C         142.9731  141.4185  159.5859 C.3     1  UNL1        0.0646
     22 C         143.5357  142.7906  159.8108 C.3     1  UNL1        0.0759
     23 N         143.1252  143.5810  161.0177 N.3     1  UNL1       -0.2726
     24 C         141.7379  144.1504  160.9818 C.3     1  UNL1        0.0721
     25 C         141.0391  144.9770  162.0204 C.3     1  UNL1        0.0173
     26 C         141.5549  145.4382  163.3512 C.3     1  UNL1        0.0015
     27 C         142.8969  145.1869  163.9723 C.3     1  UNL1        0.0015
     28 C         144.0547  144.4122  163.4159 C.3     1  UNL1        0.0173
     29 C         144.1563  143.6975  162.1009 C.3     1  UNL1        0.0721
@<TRIPOS>BOND
     1     7     8    1
     2     8     9   ar
     3     9    10   ar
     4    10    11   ar
     5    11    12   ar
     6    12    13   ar
     7    13    14   ar
     8    14    15   ar
     9    15    16   ar
    10    16    17    2
    11    16    18   ar
    12    18     1    1
    13     1     2   ar
    14     2     3   ar
    15     3     4   ar
    16     4    19    1
    17    19    20    1
    18    20    21    1
    19    21    22    1
    20    22    23    1
    21    23    24    1
    22    24    25    1
    23    25    26    1
    24    26    27    1
    25    27    28    1
    26    28    29    1
    27     4     5   ar
    28     5     6   ar
    29    18     8   ar
    30     6     1   ar
    31    15    10   ar
    32    29    23    1
@<TRIPOS>MOLECULE
*****
 29 32 0 0 0
SMALL
GASTEIGER

@<TRIPOS>ATOM
      1 C         139.5959  139.1473  165.0175 C.ar    1  UNL1        0.0681
      2 C         138.5663  139.8594  164.1912 C.ar    1  UNL1        0.0208
      3 C         138.3228  139.4402  162.7718 C.ar    1  UNL1        0.0384
      4 C         139.1090  138.3088  162.1786 C.ar    1  UNL1        0.1386
      5 C         140.1386  137.5967  163.0049 C.ar    1  UNL1        0.0384
      6 C         140.3821  138.0160  164.4243 C.ar    1  UNL1        0.0208
      7 C         137.5586  138.5351  167.1328 C.3     1  UNL1        0.0723
      8 C         138.8207  139.2605  167.4947 C.ar    1  UNL1        0.1268
      9 N         139.0640  139.6798  168.9141 N.ar    1  UNL1       -0.2318
     10 C         140.3261  140.4052  169.2760 C.ar    1  UNL1        0.0872
     11 C         140.5695  140.8245  170.6955 C.ar    1  UNL1        0.0193
     12 C         141.8316  141.5499  171.0573 C.ar    1  UNL1        0.0015
     13 C         142.8502  141.8561  169.9997 C.ar    1  UNL1        0.0003
     14 C         142.6069  141.4368  168.5802 C.ar    1  UNL1        0.0063
     15 C         141.3448  140.7114  168.2184 C.ar    1  UNL1        0.0742
     16 C         141.1014  140.2921  166.7989 C.ar    1  UNL1        0.2669
     17 O         142.1200  140.5982  165.7412 O.2     1  UNL1       -0.2665
     18 N         139.8393  139.5666  166.4370 N.ar    1  UNL1       -0.2626
     19 O         138.8655  137.8895  160.7591 O.3     1  UNL1       -0.4754
     20 C         139.4571  138.6818  159.6311 C.3     1  UNL1        0.2068
     21 C         138.9207  140.0453  159.3102 C.3     1  UNL1        0.0646
     22 C         139.7500  141.2630  159.5925 C.3     1  UNL1        0.0759
     23 N         139.6417  141.9528  160.9200 N.3     1  UNL1       -0.2726
     24 C         138.3220  142.6047  161.2090 C.3     1  UNL1        0.0721
     25 C         137.9021  143.3644  162.4325 C.3     1  UNL1        0.0173
     26 C         138.6982  143.6598  163.6690 C.3     1  UNL1        0.0015
     27 C         140.1108  143.2685  163.9875 C.3     1  UNL1        0.0015
     28 C         141.0762  142.4851  163.1482 C.3     1  UNL1        0.0173
     29 C         140.8674  141.8996  161.7830 C.3     1  UNL1        0.0721
@<TRIPOS>BOND
     1     7     8    1
     2     8     9   ar
     3     9    10   ar
     4    10    11   ar
     5    11    12   ar
     6    12    13   ar
     7    13    14   ar
     8    14    15   ar
     9    15    16   ar
    10    16    17    2
    11    16    18   ar
    12    18     1    1
    13     1     2   ar
    14     2     3   ar
    15     3     4   ar
    16     4    19    1
    17    19    20    1
    18    20    21    1
    19    21    22    1
    20    22    23    1
    21    23    24    1
    22    24    25    1
    23    25    26    1
    24    26    27    1
    25    27    28    1
    26    28    29    1
    27     4     5   ar
    28     5     6   ar
    29    18     8   ar
    30     6     1   ar
    31    15    10   ar
    32    29    23    1
@<TRIPOS>MOLECULE
*****
 29 32 0 0 0
SMALL
GASTEIGER

@<TRIPOS>ATOM
      1 C         139.8769  139.2188  159.7401 C.ar    1  UNL1        0.0681
      2 C         139.8406  140.7153  159.6442 C.ar    1  UNL1        0.0208
      3 C         138.9289  141.5023  160.5382 C.ar    1  UNL1        0.0384
      4 C         138.0534  140.7928  161.5282 C.ar    1  UNL1        0.1386
      5 C         138.0896  139.2963  161.6241 C.ar    1  UNL1        0.0384
      6 C         139.0014  138.5093  160.7301 C.ar    1  UNL1        0.0208
      7 C         142.6475  138.5262  160.6588 C.3     1  UNL1        0.0723
      8 C         142.1739  138.0854  159.3054 C.ar    1  UNL1        0.1268
      9 N         143.0857  137.2985  158.4113 N.ar    1  UNL1       -0.2318
     10 C         142.6122  136.8577  157.0579 C.ar    1  UNL1        0.0872
     11 C         143.5239  136.0708  156.1639 C.ar    1  UNL1        0.0193
     12 C         143.0504  135.6301  154.8106 C.ar    1  UNL1        0.0015
     13 C         141.6651  135.9764  154.3513 C.ar    1  UNL1        0.0003
     14 C         140.7533  136.7634  155.2453 C.ar    1  UNL1        0.0063
     15 C         141.2269  137.2041  156.5986 C.ar    1  UNL1        0.0742
     16 C         140.3151  137.9911  157.4927 C.ar    1  UNL1        0.2669
     17 O         138.9298  138.3374  157.0334 O.2     1  UNL1       -0.2665
     18 N         140.7886  138.4318  158.8460 N.ar    1  UNL1       -0.2626
     19 O         137.1416  141.5799  162.4223 O.3     1  UNL1       -0.4754
     20 C         137.5947  142.8942  162.9856 C.3     1  UNL1        0.2068
     21 C         138.0156  142.9894  164.4221 C.3     1  UNL1        0.0646
     22 C         139.3031  142.3630  164.8695 C.3     1  UNL1        0.0759
     23 N         139.4633  140.8720  164.8354 N.3     1  UNL1       -0.2726
     24 C         138.3895  140.0861  165.5278 C.3     1  UNL1        0.0721
     25 C         138.2633  138.5980  165.6693 C.3     1  UNL1        0.0173
     26 C         139.1798  137.5285  165.1534 C.3     1  UNL1        0.0015
     27 C         140.4487  137.6827  164.3685 C.3     1  UNL1        0.0015
     28 C         141.1147  138.9447  163.9058 C.3     1  UNL1        0.0173
     29 C         140.6761  140.3640  164.1136 C.3     1  UNL1        0.0721
@<TRIPOS>BOND
     1     7     8    1
     2     8     9   ar
     3     9    10   ar
     4    10    11   ar
     5    11    12   ar
     6    12    13   ar
     7    13    14   ar
     8    14    15   ar
     9    15    16   ar
    10    16    17    2
    11    16    18   ar
    12    18     1    1
    13     1     2   ar
    14     2     3   ar
    15     3     4   ar
    16     4    19    1
    17    19    20    1
    18    20    21    1
    19    21    22    1
    20    22    23    1
    21    23    24    1
    22    24    25    1
    23    25    26    1
    24    26    27    1
    25    27    28    1
    26    28    29    1
    27     4     5   ar
    28     5     6   ar
    29    18     8   ar
    30     6     1   ar
    31    15    10   ar
    32    29    23    1
@<TRIPOS>MOLECULE
*****
 29 32 0 0 0
SMALL
GASTEIGER

@<TRIPOS>ATOM
      1 C         141.4066  139.3338  164.8151 C.ar    1  UNL1        0.0681
      2 C         140.6883  138.0800  164.4128 C.ar    1  UNL1        0.0208
      3 C         140.4619  137.7782  162.9611 C.ar    1  UNL1        0.0384
      4 C         140.9539  138.7302  161.9116 C.ar    1  UNL1        0.1386
      5 C         141.6722  139.9841  162.3139 C.ar    1  UNL1        0.0384
      6 C         141.8986  140.2859  163.7656 C.ar    1  UNL1        0.0208
      7 C         143.7597  138.1435  166.2454 C.3     1  UNL1        0.0723
      8 C         142.8095  139.0404  166.9821 C.ar    1  UNL1        0.1268
      9 N         143.0358  139.3422  168.4339 N.ar    1  UNL1       -0.2318
     10 C         142.0856  140.2391  169.1706 C.ar    1  UNL1        0.0872
     11 C         142.3120  140.5408  170.6223 C.ar    1  UNL1        0.0193
     12 C         141.3617  141.4377  171.3589 C.ar    1  UNL1        0.0015
     13 C         140.1852  142.0329  170.6438 C.ar    1  UNL1        0.0003
     14 C         139.9588  141.7312  169.1920 C.ar    1  UNL1        0.0063
     15 C         140.9090  140.8343  168.4554 C.ar    1  UNL1        0.0742
     16 C         140.6827  140.5325  167.0035 C.ar    1  UNL1        0.2669
     17 O         139.5061  141.1277  166.2884 O.2     1  UNL1       -0.2665
     18 N         141.6329  139.6356  166.2669 N.ar    1  UNL1       -0.2626
     19 O         140.7276  138.4285  160.4597 O.3     1  UNL1       -0.4754
     20 C         139.3392  138.4670  159.8933 C.3     1  UNL1        0.2068
     21 C         138.5829  139.7616  159.8490 C.3     1  UNL1        0.0646
     22 C         137.7349  140.1751  161.0152 C.3     1  UNL1        0.0759
     23 N         138.0335  141.4514  161.7445 N.3     1  UNL1       -0.2726
     24 C         138.9420  142.4101  161.0333 C.3     1  UNL1        0.0721
     25 C         139.4254  143.7545  161.4906 C.3     1  UNL1        0.0173
     26 C         139.1199  144.4721  162.7718 C.3     1  UNL1        0.0015
     27 C         138.2554  144.0227  163.9122 C.3     1  UNL1        0.0015
     28 C         137.4829  142.7446  164.0532 C.3     1  UNL1        0.0173
     29 C         137.3842  141.6003  163.0884 C.3     1  UNL1        0.0721
@<TRIPOS>BOND
     1     7     8    1
     2     8     9   ar
     3     9    10   ar
     4    10    11   ar
     5    11    12   ar
     6    12    13   ar
     7    13    14   ar
     8    14    15   ar
     9    15    16   ar
    10    16    17    2
    11    16    18   ar
    12    18     1    1
    13     1     2   ar
    14     2     3   ar
    15     3     4   ar
    16     4    19    1
    17    19    20    1
    18    20    21    1
    19    21    22    1
    20    22    23    1
    21    23    24    1
    22    24    25    1
    23    25    26    1
    24    26    27    1
    25    27    28    1
    26    28    29    1
    27     4     5   ar
    28     5     6   ar
    29    18     8   ar
    30     6     1   ar
    31    15    10   ar
    32    29    23    1
@<TRIPOS>MOLECULE
*****
 29 32 0 0 0
SMALL
GASTEIGER

@<TRIPOS>ATOM
      1 C         140.8142  139.3309  164.6141 C.ar    1  UNL1        0.0681
      2 C         140.6008  140.4415  163.6287 C.ar    1  UNL1        0.0208
      3 C         140.8035  140.1932  162.1633 C.ar    1  UNL1        0.0384
      4 C         141.2195  138.8343  161.6835 C.ar    1  UNL1        0.1386
      5 C         141.4329  137.7238  162.6689 C.ar    1  UNL1        0.0384
      6 C         141.2303  137.9721  164.1342 C.ar    1  UNL1        0.0208
      7 C         138.0904  139.0044  165.8281 C.3     1  UNL1        0.0723
      8 C         139.2496  139.4160  166.6865 C.ar    1  UNL1        0.1268
      9 N         139.0469  139.6643  168.1518 N.ar    1  UNL1       -0.2318
     10 C         140.2062  140.0760  169.0102 C.ar    1  UNL1        0.0872
     11 C         140.0035  140.3243  170.4755 C.ar    1  UNL1        0.0193
     12 C         141.1627  140.7359  171.3338 C.ar    1  UNL1        0.0015
     13 C         142.5246  140.8992  170.7268 C.ar    1  UNL1        0.0003
     14 C         142.7274  140.6508  169.2615 C.ar    1  UNL1        0.0063
     15 C         141.5681  140.2392  168.4032 C.ar    1  UNL1        0.0742
     16 C         141.7708  139.9909  166.9378 C.ar    1  UNL1        0.2669
     17 O         143.1327  140.1541  166.3308 O.2     1  UNL1       -0.2665
     18 N         140.6116  139.5793  166.0795 N.ar    1  UNL1       -0.2626
     19 O         141.4222  138.5860  160.2181 O.3     1  UNL1       -0.4754
     20 C         142.6212  139.1557  159.5196 C.3     1  UNL1        0.2068
     21 C         142.8494  140.6381  159.5098 C.3     1  UNL1        0.0646
     22 C         144.1122  141.2065  160.0863 C.3     1  UNL1        0.0759
     23 N         144.0864  141.8879  161.4223 N.3     1  UNL1       -0.2726
     24 C         145.0145  141.3254  162.4579 C.3     1  UNL1        0.0721
     25 C         145.2214  141.7778  163.8730 C.3     1  UNL1        0.0173
     26 C         144.5513  142.9044  164.6021 C.3     1  UNL1        0.0015
     27 C         143.5088  143.8569  164.0963 C.3     1  UNL1        0.0015
     28 C         142.8789  143.9180  162.7362 C.3     1  UNL1        0.0173
     29 C         143.1360  143.0417  161.5462 C.3     1  UNL1        0.0721
@<TRIPOS>BOND
     1     7     8    1
     2     8     9   ar
     3     9    10   ar
     4    10    11   ar
     5    11    12   ar
     6    12    13   ar
     7    13    14   ar
     8    14    15   ar
     9    15    16   ar
    10    16    17    2
    11    16    18   ar
    12    18     1    1
    13     1     2   ar
    14     2     3   ar
    15     3     4   ar
    16     4    19    1
    17    19    20    1
    18    20    21    1
    19    21    22    1
    20    22    23    1
    21    23    24    1
    22    24    25    1
    23    25    26    1
    24    26    27    1
    25    27    28    1
    26    28    29    1
    27     4     5   ar
    28     5     6   ar
    29    18     8   ar
    30     6     1   ar
    31    15    10   ar
    32    29    23    1
