@<TRIPOS>MOLECULE
*****
 29 31 0 0 0
SMALL
GASTEIGER

@<TRIPOS>ATOM
      1 N         143.2265  139.4740  158.6084 N.4     1  UNL1        0.3087
      2 C         142.5417  138.6948  157.5250 C.3     1  UNL1        0.1712
      3 C         142.6703  138.4103  159.5079 C.3     1  UNL1        0.1430
      4 C         143.0977  138.7203  160.9119 C.ar    1  UNL1        0.0651
      5 S         143.0181  138.2545  162.3356 S.2     1  UNL1       -0.0707
      6 C         143.7892  139.2219  163.1836 C.ar    1  UNL1        0.0860
      7 C         144.3454  140.2857  162.2842 C.ar    1  UNL1        0.0747
      8 C         143.9181  139.9757  160.8802 C.ar    1  UNL1        0.0464
      9 C         143.9977  140.4415  159.4566 C.3     1  UNL1        0.1372
     10 N         143.9720  139.1400  164.6701 N.am    1  UNL1       -0.2629
     11 C         143.0611  139.9081  165.5813 C.2     1  UNL1        0.3085
     12 O         141.9672  140.7581  165.0059 O.2     1  UNL1       -0.2521
     13 N         143.2439  139.8262  167.0678 N.am    1  UNL1       -0.2680
     14 H         144.6899  138.5822  165.0478 H       1  UNL1        0.1569
     15 H         143.9618  139.2683  167.4455 H       1  UNL1        0.1564
     16 C         142.3329  140.5943  167.9790 C.ar    1  UNL1        0.0516
     17 C         140.9912  140.0327  168.3457 C.ar    1  UNL1        0.0156
     18 C         140.0802  140.8008  169.2568 C.ar    1  UNL1        0.0127
     19 C         140.5109  142.1306  169.8012 C.ar    1  UNL1        0.0578
     20 CL        139.6000  142.8987  170.7123 Cl      1  UNL1       -0.0822
     21 C         141.8526  142.6922  169.4344 C.ar    1  UNL1        0.0127
     22 C         142.7636  141.9240  168.5233 C.ar    1  UNL1        0.0156
     23 C         145.1822  141.4543  162.7134 C.2     1  UNL1        0.2444
     24 N         145.2259  142.6949  161.8714 N.am    1  UNL1       -0.3253
     25 O         145.9752  141.3824  163.9846 O.2     1  UNL1       -0.2703
     26 H         144.7054  142.7421  161.0371 H       1  UNL1        0.1453
     27 H         145.7750  143.4619  162.1531 H       1  UNL1        0.1453
     28 C         144.8418  141.2594  157.6321 C.3     1  UNL1        0.0671
     29 C         143.6396  140.3749  157.4825 C.3     1  UNL1        0.1097
@<TRIPOS>UNITY_ATOM_ATTR
1 1
charge 1
@<TRIPOS>BOND
     1    28    29    1
     2    29     1    1
     3     1     2    1
     4     1     3    1
     5     3     4    1
     6     4     5   ar
     7     5     6   ar
     8     6    10    1
     9    10    11   am
    10    11    12    2
    11    11    13   am
    12    13    16    1
    13    16    17   ar
    14    17    18   ar
    15    18    19   ar
    16    19    20    1
    17    19    21   ar
    18    21    22   ar
    19     6     7   ar
    20     7    23    1
    21    23    24   am
    22    23    25    2
    23     7     8   ar
    24     8     9    1
    25     9     1    1
    26     8     4   ar
    27    22    16   ar
    28    10    14    1
    29    13    15    1
    30    24    26    1
    31    24    27    1
@<TRIPOS>MOLECULE
*****
 29 31 0 0 0
SMALL
GASTEIGER

@<TRIPOS>ATOM
      1 N         138.9132  139.6440  158.9687 N.4     1  UNL1        0.3087
      2 C         138.0841  140.3706  157.9515 C.3     1  UNL1        0.1712
      3 C         137.9706  140.2702  159.9532 C.3     1  UNL1        0.1430
      4 C         138.3779  139.8315  161.3286 C.ar    1  UNL1        0.0651
      5 S         138.0471  139.9474  162.7870 S.2     1  UNL1       -0.0707
      6 C         139.0370  139.1216  163.5539 C.ar    1  UNL1        0.0860
      7 C         139.9796  138.4954  162.5695 C.ar    1  UNL1        0.0747
      8 C         139.5723  138.9341  161.1941 C.ar    1  UNL1        0.0464
      9 C         139.9031  138.8182  159.7356 C.3     1  UNL1        0.1372
     10 N         139.0772  138.9519  165.0437 N.am    1  UNL1       -0.2629
     11 C         139.9224  139.8662  165.8801 C.2     1  UNL1        0.3085
     12 O         140.7275  140.9502  165.2268 O.2     1  UNL1       -0.2521
     13 N         139.9626  139.6965  167.3700 N.am    1  UNL1       -0.2680
     14 H         138.5488  138.2405  165.4725 H       1  UNL1        0.1569
     15 H         139.4343  138.9850  167.7988 H       1  UNL1        0.1564
     16 C         140.8079  140.6108  168.2064 C.ar    1  UNL1        0.0516
     17 C         142.1579  140.1600  168.6799 C.ar    1  UNL1        0.0156
     18 C         143.0032  141.0743  169.5164 C.ar    1  UNL1        0.0127
     19 C         142.4984  142.4394  169.8793 C.ar    1  UNL1        0.0578
     20 CL        143.3436  143.3537  170.7157 Cl      1  UNL1       -0.0822
     21 C         141.1483  142.8902  169.4057 C.ar    1  UNL1        0.0127
     22 C         140.3031  141.9759  168.5693 C.ar    1  UNL1        0.0156
     23 C         141.1280  137.5895  162.9019 C.2     1  UNL1        0.2444
     24 N         142.2126  137.3524  161.8933 N.am    1  UNL1       -0.3253
     25 O         141.1918  136.9207  164.2431 O.2     1  UNL1       -0.2703
     26 H         142.1708  137.7914  161.0131 H       1  UNL1        0.1453
     27 H         142.9664  136.7578  162.1115 H       1  UNL1        0.1453
     28 C         140.5512  137.9510  157.8730 C.3     1  UNL1        0.0671
     29 C         139.6826  139.1696  157.7716 C.3     1  UNL1        0.1097
@<TRIPOS>UNITY_ATOM_ATTR
1 1
charge 1
@<TRIPOS>BOND
     1    28    29    1
     2    29     1    1
     3     1     2    1
     4     1     3    1
     5     3     4    1
     6     4     5   ar
     7     5     6   ar
     8     6    10    1
     9    10    11   am
    10    11    12    2
    11    11    13   am
    12    13    16    1
    13    16    17   ar
    14    17    18   ar
    15    18    19   ar
    16    19    20    1
    17    19    21   ar
    18    21    22   ar
    19     6     7   ar
    20     7    23    1
    21    23    24   am
    22    23    25    2
    23     7     8   ar
    24     8     9    1
    25     9     1    1
    26     8     4   ar
    27    22    16   ar
    28    10    14    1
    29    13    15    1
    30    24    26    1
    31    24    27    1
@<TRIPOS>MOLECULE
*****
 29 31 0 0 0
SMALL
GASTEIGER

@<TRIPOS>ATOM
      1 N         141.1553  144.6859  158.6733 N.4     1  UNL1        0.3087
      2 C         142.2299  145.0601  157.6960 C.3     1  UNL1        0.1712
      3 C         142.0803  143.5563  159.0173 C.3     1  UNL1        0.1430
      4 C         141.4310  142.7364  160.0926 C.ar    1  UNL1        0.0651
      5 S         141.6014  141.5316  160.9697 S.2     1  UNL1       -0.0707
      6 C         140.3804  141.4100  161.8324 C.ar    1  UNL1        0.0860
      7 C         139.4554  142.5395  161.4885 C.ar    1  UNL1        0.0747
      8 C         140.1047  143.3593  160.4132 C.ar    1  UNL1        0.0464
      9 C         139.9343  144.5642  159.5360 C.3     1  UNL1        0.1372
     10 N         140.1286  140.3455  162.8589 N.am    1  UNL1       -0.2629
     11 C         140.5096  140.5793  164.2907 C.2     1  UNL1        0.3085
     12 O         141.1424  141.8775  164.6961 O.2     1  UNL1       -0.2521
     13 N         140.2578  139.5149  165.3172 N.am    1  UNL1       -0.2680
     14 H         139.7134  139.4935  162.5928 H       1  UNL1        0.1569
     15 H         139.8425  138.6628  165.0511 H       1  UNL1        0.1564
     16 C         140.6388  139.7487  166.7491 C.ar    1  UNL1        0.0516
     17 C         139.5872  140.1113  167.7553 C.ar    1  UNL1        0.0156
     18 C         139.9682  140.3451  169.1872 C.ar    1  UNL1        0.0127
     19 C         141.4008  140.2163  169.6128 C.ar    1  UNL1        0.0578
     20 CL        141.7819  140.4500  171.0446 Cl      1  UNL1       -0.0822
     21 C         142.4524  139.8536  168.6064 C.ar    1  UNL1        0.0127
     22 C         142.0714  139.6199  167.1746 C.ar    1  UNL1        0.0156
     23 C         138.1161  142.8030  162.1106 C.2     1  UNL1        0.2444
     24 N         137.6938  144.2100  162.4137 N.am    1  UNL1       -0.3253
     25 O         137.1993  141.6595  162.4296 O.2     1  UNL1       -0.2703
     26 H         138.2955  144.9605  162.2043 H       1  UNL1        0.1453
     27 H         136.8148  144.3830  162.8220 H       1  UNL1        0.1453
     28 C         140.1488  145.9823  156.6593 C.3     1  UNL1        0.0671
     29 C         140.4549  145.8937  158.1250 C.3     1  UNL1        0.1097
@<TRIPOS>UNITY_ATOM_ATTR
1 1
charge 1
@<TRIPOS>BOND
     1    28    29    1
     2    29     1    1
     3     1     2    1
     4     1     3    1
     5     3     4    1
     6     4     5   ar
     7     5     6   ar
     8     6    10    1
     9    10    11   am
    10    11    12    2
    11    11    13   am
    12    13    16    1
    13    16    17   ar
    14    17    18   ar
    15    18    19   ar
    16    19    20    1
    17    19    21   ar
    18    21    22   ar
    19     6     7   ar
    20     7    23    1
    21    23    24   am
    22    23    25    2
    23     7     8   ar
    24     8     9    1
    25     9     1    1
    26     8     4   ar
    27    22    16   ar
    28    10    14    1
    29    13    15    1
    30    24    26    1
    31    24    27    1
@<TRIPOS>MOLECULE
*****
 29 31 0 0 0
SMALL
GASTEIGER

@<TRIPOS>ATOM
      1 N         141.5321  141.3981  167.2291 N.4     1  UNL1        0.3087
      2 C         142.3706  140.3933  167.9622 C.3     1  UNL1        0.1712
      3 C         142.7432  141.5369  166.3550 C.3     1  UNL1        0.1430
      4 C         142.4367  142.5546  165.2965 C.ar    1  UNL1        0.0651
      5 S         142.9957  143.2694  164.1021 S.2     1  UNL1       -0.0707
      6 C         141.9407  144.2012  163.5839 C.ar    1  UNL1        0.0860
      7 C         140.7297  144.0624  164.4579 C.ar    1  UNL1        0.0747
      8 C         141.0362  143.0447  165.5164 C.ar    1  UNL1        0.0464
      9 C         140.4771  142.3299  166.7108 C.3     1  UNL1        0.1372
     10 N         142.0734  145.1120  162.3995 N.am    1  UNL1       -0.2629
     11 C         141.7144  144.6179  161.0295 C.2     1  UNL1        0.3085
     12 O         141.2226  143.2130  160.8438 O.2     1  UNL1       -0.2521
     13 N         141.8472  145.5287  159.8451 N.am    1  UNL1       -0.2680
     14 H         142.3962  146.0340  162.5213 H       1  UNL1        0.1569
     15 H         142.1699  146.4508  159.9669 H       1  UNL1        0.1564
     16 C         141.4881  145.0346  158.4750 C.ar    1  UNL1        0.0516
     17 C         142.4931  144.2689  157.6666 C.ar    1  UNL1        0.0156
     18 C         142.1340  143.7748  156.2965 C.ar    1  UNL1        0.0127
     19 C         140.7699  144.0464  155.7350 C.ar    1  UNL1        0.0578
     20 CL        140.4108  143.5523  154.3650 Cl      1  UNL1       -0.0822
     21 C         139.7648  144.8121  156.5435 C.ar    1  UNL1        0.0127
     22 C         140.1239  145.3061  157.9135 C.ar    1  UNL1        0.0156
     23 C         139.4387  144.8099  164.3011 C.2     1  UNL1        0.2444
     24 N         138.6287  145.1699  165.5111 N.am    1  UNL1       -0.3253
     25 O         138.9577  145.1975  162.9342 O.2     1  UNL1       -0.2703
     26 H         138.9443  144.9155  166.4083 H       1  UNL1        0.1453
     27 H         137.7814  145.6605  165.4082 H       1  UNL1        0.1453
     28 C         139.5207  139.9411  167.9915 C.3     1  UNL1        0.0671
     29 C         140.4963  141.0492  168.2564 C.3     1  UNL1        0.1097
@<TRIPOS>UNITY_ATOM_ATTR
1 1
charge 1
@<TRIPOS>BOND
     1    28    29    1
     2    29     1    1
     3     1     2    1
     4     1     3    1
     5     3     4    1
     6     4     5   ar
     7     5     6   ar
     8     6    10    1
     9    10    11   am
    10    11    12    2
    11    11    13   am
    12    13    16    1
    13    16    17   ar
    14    17    18   ar
    15    18    19   ar
    16    19    20    1
    17    19    21   ar
    18    21    22   ar
    19     6     7   ar
    20     7    23    1
    21    23    24   am
    22    23    25    2
    23     7     8   ar
    24     8     9    1
    25     9     1    1
    26     8     4   ar
    27    22    16   ar
    28    10    14    1
    29    13    15    1
    30    24    26    1
    31    24    27    1
@<TRIPOS>MOLECULE
*****
 29 31 0 0 0
SMALL
GASTEIGER

@<TRIPOS>ATOM
      1 N         140.8427  141.3265  168.2210 N.4     1  UNL1        0.3087
      2 C         141.2673  140.1336  169.0252 C.3     1  UNL1        0.1712
      3 C         140.4999  140.3043  167.1782 C.3     1  UNL1        0.1430
      4 C         139.9537  141.0269  165.9826 C.ar    1  UNL1        0.0651
      5 S         139.4042  140.8418  164.5992 S.2     1  UNL1       -0.0707
      6 C         139.0699  142.1962  164.0481 C.ar    1  UNL1        0.0860
      7 C         139.4127  143.2184  165.0909 C.ar    1  UNL1        0.0747
      8 C         139.9589  142.4958  166.2865 C.ar    1  UNL1        0.0464
      9 C         140.5083  142.6809  167.6699 C.3     1  UNL1        0.1372
     10 N         138.4939  142.4787  162.6923 N.am    1  UNL1       -0.2629
     11 C         139.3828  142.9646  161.5861 C.2     1  UNL1        0.3085
     12 O         140.8479  143.1679  161.8358 O.2     1  UNL1       -0.2521
     13 N         138.8068  143.2471  160.2303 N.am    1  UNL1       -0.2680
     14 H         137.5323  142.3453  162.5284 H       1  UNL1        0.1569
     15 H         137.8453  143.1137  160.0664 H       1  UNL1        0.1564
     16 C         139.6959  143.7330  159.1241 C.ar    1  UNL1        0.0516
     17 C         140.0723  142.8093  158.0038 C.ar    1  UNL1        0.0156
     18 C         140.9613  143.2952  156.8976 C.ar    1  UNL1        0.0127
     19 C         141.4739  144.7048  156.9118 C.ar    1  UNL1        0.0578
     20 CL        142.3630  145.1907  155.8057 Cl      1  UNL1       -0.0822
     21 C         141.0975  145.6285  158.0321 C.ar    1  UNL1        0.0127
     22 C         140.2085  145.1426  159.1382 C.ar    1  UNL1        0.0156
     23 C         139.2396  144.7027  164.9610 C.2     1  UNL1        0.2444
     24 N         139.9633  145.4505  163.8806 N.am    1  UNL1       -0.3253
     25 O         138.3429  145.4393  165.9114 O.2     1  UNL1       -0.2703
     26 H         140.5519  144.9670  163.2568 H       1  UNL1        0.1453
     27 H         139.8497  146.4247  163.7953 H       1  UNL1        0.1453
     28 C         140.5047  143.3136  169.8602 C.3     1  UNL1        0.0671
     29 C         141.2743  142.0994  169.4319 C.3     1  UNL1        0.1097
@<TRIPOS>UNITY_ATOM_ATTR
1 1
charge 1
@<TRIPOS>BOND
     1    28    29    1
     2    29     1    1
     3     1     2    1
     4     1     3    1
     5     3     4    1
     6     4     5   ar
     7     5     6   ar
     8     6    10    1
     9    10    11   am
    10    11    12    2
    11    11    13   am
    12    13    16    1
    13    16    17   ar
    14    17    18   ar
    15    18    19   ar
    16    19    20    1
    17    19    21   ar
    18    21    22   ar
    19     6     7   ar
    20     7    23    1
    21    23    24   am
    22    23    25    2
    23     7     8   ar
    24     8     9    1
    25     9     1    1
    26     8     4   ar
    27    22    16   ar
    28    10    14    1
    29    13    15    1
    30    24    26    1
    31    24    27    1
@<TRIPOS>MOLECULE
*****
 29 31 0 0 0
SMALL
GASTEIGER

@<TRIPOS>ATOM
      1 N         140.7232  141.2331  169.4746 N.4     1  UNL1        0.3087
      2 C         140.1388  140.5887  170.6966 C.3     1  UNL1        0.1712
      3 C         141.2952  139.8697  169.2216 C.3     1  UNL1        0.1430
      4 C         142.0881  139.9284  167.9497 C.ar    1  UNL1        0.0651
      5 S         142.9316  139.1220  167.0072 S.2     1  UNL1       -0.0707
      6 C         143.3709  140.0233  165.8916 C.ar    1  UNL1        0.0860
      7 C         142.7990  141.3866  166.1445 C.ar    1  UNL1        0.0747
      8 C         142.0061  141.3280  167.4165 C.ar    1  UNL1        0.0464
      9 C         141.1626  142.1344  168.3590 C.3     1  UNL1        0.1372
     10 N         144.2312  139.6302  164.7274 N.am    1  UNL1       -0.2629
     11 C         143.6384  139.5436  163.3522 C.2     1  UNL1        0.3085
     12 O         142.1852  139.8501  163.1413 O.2     1  UNL1       -0.2521
     13 N         144.4987  139.1505  162.1880 N.am    1  UNL1       -0.2680
     14 H         145.1849  139.4290  164.8658 H       1  UNL1        0.1569
     15 H         145.4524  138.9493  162.3265 H       1  UNL1        0.1564
     16 C         143.9058  139.0639  160.8128 C.ar    1  UNL1        0.0516
     17 C         143.9874  140.2400  159.8855 C.ar    1  UNL1        0.0156
     18 C         143.3945  140.1534  158.5103 C.ar    1  UNL1        0.0127
     19 C         142.7200  138.8907  158.0625 C.ar    1  UNL1        0.0578
     20 CL        142.1272  138.8041  156.6874 Cl      1  UNL1       -0.0822
     21 C         142.6384  137.7145  158.9900 C.ar    1  UNL1        0.0127
     22 C         143.2313  137.8011  160.3651 C.ar    1  UNL1        0.0156
     23 C         142.9868  142.5963  165.2777 C.2     1  UNL1        0.2444
     24 N         141.9896  142.9105  164.2021 N.am    1  UNL1       -0.3253
     25 O         144.1719  143.4918  165.4864 O.2     1  UNL1       -0.2703
     26 H         141.2117  142.3227  164.0651 H       1  UNL1        0.1453
     27 H         142.1129  143.7044  163.6332 H       1  UNL1        0.1453
     28 C         140.7068  143.7970  169.8944 C.3     1  UNL1        0.0671
     29 C         140.0291  142.4618  169.9830 C.3     1  UNL1        0.1097
@<TRIPOS>UNITY_ATOM_ATTR
1 1
charge 1
@<TRIPOS>BOND
     1    28    29    1
     2    29     1    1
     3     1     2    1
     4     1     3    1
     5     3     4    1
     6     4     5   ar
     7     5     6   ar
     8     6    10    1
     9    10    11   am
    10    11    12    2
    11    11    13   am
    12    13    16    1
    13    16    17   ar
    14    17    18   ar
    15    18    19   ar
    16    19    20    1
    17    19    21   ar
    18    21    22   ar
    19     6     7   ar
    20     7    23    1
    21    23    24   am
    22    23    25    2
    23     7     8   ar
    24     8     9    1
    25     9     1    1
    26     8     4   ar
    27    22    16   ar
    28    10    14    1
    29    13    15    1
    30    24    26    1
    31    24    27    1
@<TRIPOS>MOLECULE
*****
 29 31 0 0 0
SMALL
GASTEIGER

@<TRIPOS>ATOM
      1 N         144.3697  142.7705  163.6025 N.4     1  UNL1        0.3087
      2 C         145.6034  141.9638  163.8801 C.3     1  UNL1        0.1712
      3 C         144.4011  142.0706  162.2762 C.3     1  UNL1        0.1430
      4 C         143.2342  142.5559  161.4682 C.ar    1  UNL1        0.0651
      5 S         142.5324  142.4232  160.1492 S.2     1  UNL1       -0.0707
      6 C         141.3461  143.3410  160.1610 C.ar    1  UNL1        0.0860
      7 C         141.3146  144.0408  161.4872 C.ar    1  UNL1        0.0747
      8 C         142.4815  143.5556  162.2952 C.ar    1  UNL1        0.0464
      9 C         143.1833  143.6883  163.6143 C.3     1  UNL1        0.1372
     10 N         140.3636  143.5263  159.0427 N.am    1  UNL1       -0.2629
     11 C         140.5361  144.6572  158.0726 C.2     1  UNL1        0.3085
     12 O         141.6912  145.6028  158.2206 O.2     1  UNL1       -0.2521
     13 N         139.5537  144.8426  156.9543 N.am    1  UNL1       -0.2680
     14 H         139.6056  142.9057  158.9456 H       1  UNL1        0.1569
     15 H         138.7956  144.2220  156.8572 H       1  UNL1        0.1564
     16 C         139.7263  145.9735  155.9841 C.ar    1  UNL1        0.0516
     17 C         139.0117  147.2725  156.2117 C.ar    1  UNL1        0.0156
     18 C         139.1843  148.4035  155.2415 C.ar    1  UNL1        0.0127
     19 C         140.0715  148.2353  154.0437 C.ar    1  UNL1        0.0578
     20 CL        140.2441  149.3662  153.0736 Cl      1  UNL1       -0.0822
     21 C         140.7861  146.9362  153.8162 C.ar    1  UNL1        0.0127
     22 C         140.6135  145.8054  154.7864 C.ar    1  UNL1        0.0156
     23 C         140.2951  145.0489  161.9282 C.2     1  UNL1        0.2444
     24 N         140.7123  146.2187  162.7694 N.am    1  UNL1       -0.3253
     25 O         138.8586  144.8873  161.5281 O.2     1  UNL1       -0.2703
     26 H         141.6551  146.3248  163.0321 H       1  UNL1        0.1453
     27 H         140.0432  146.8804  163.0589 H       1  UNL1        0.1453
     28 C         143.7348  142.8309  166.1211 C.3     1  UNL1        0.0671
     29 C         144.5961  143.3017  164.9869 C.3     1  UNL1        0.1097
@<TRIPOS>UNITY_ATOM_ATTR
1 1
charge 1
@<TRIPOS>BOND
     1    28    29    1
     2    29     1    1
     3     1     2    1
     4     1     3    1
     5     3     4    1
     6     4     5   ar
     7     5     6   ar
     8     6    10    1
     9    10    11   am
    10    11    12    2
    11    11    13   am
    12    13    16    1
    13    16    17   ar
    14    17    18   ar
    15    18    19   ar
    16    19    20    1
    17    19    21   ar
    18    21    22   ar
    19     6     7   ar
    20     7    23    1
    21    23    24   am
    22    23    25    2
    23     7     8   ar
    24     8     9    1
    25     9     1    1
    26     8     4   ar
    27    22    16   ar
    28    10    14    1
    29    13    15    1
    30    24    26    1
    31    24    27    1
@<TRIPOS>MOLECULE
*****
 29 31 0 0 0
SMALL
GASTEIGER

@<TRIPOS>ATOM
      1 N         141.4276  141.6188  167.2643 N.4     1  UNL1        0.3087
      2 C         140.4089  141.2111  168.2870 C.3     1  UNL1        0.1712
      3 C         140.3113  142.4578  166.7167 C.3     1  UNL1        0.1430
      4 C         140.8289  143.1908  165.5147 C.ar    1  UNL1        0.0651
      5 S         140.4589  144.1623  164.4334 S.2     1  UNL1       -0.0707
      6 C         141.6664  144.3768  163.5699 C.ar    1  UNL1        0.0860
      7 C         142.7828  143.5379  164.1174 C.ar    1  UNL1        0.0747
      8 C         142.2652  142.8049  165.3194 C.ar    1  UNL1        0.0464
      9 C         142.6352  141.8333  166.4007 C.3     1  UNL1        0.1372
     10 N         141.7440  145.2729  162.3695 N.am    1  UNL1       -0.2629
     11 C         141.5402  144.7059  160.9959 C.2     1  UNL1        0.3085
     12 O         141.2587  143.2427  160.8225 O.2     1  UNL1       -0.2521
     13 N         141.6178  145.6020  159.7955 N.am    1  UNL1       -0.2680
     14 H         141.9287  146.2332  162.4832 H       1  UNL1        0.1569
     15 H         141.8025  146.5624  159.9092 H       1  UNL1        0.1564
     16 C         141.4139  145.0350  158.4218 C.ar    1  UNL1        0.0516
     17 C         142.5577  144.3848  157.7014 C.ar    1  UNL1        0.0156
     18 C         142.3539  143.8178  156.3277 C.ar    1  UNL1        0.0127
     19 C         141.0062  143.9009  155.6744 C.ar    1  UNL1        0.0578
     20 CL        140.8023  143.3339  154.3008 Cl      1  UNL1       -0.0822
     21 C         139.8623  144.5511  156.3949 C.ar    1  UNL1        0.0127
     22 C         140.0662  145.1181  157.7685 C.ar    1  UNL1        0.0156
     23 C         144.1728  143.4478  163.5608 C.2     1  UNL1        0.2444
     24 N         145.1455  142.4575  164.1292 N.am    1  UNL1       -0.3253
     25 O         144.5900  144.3479  162.4358 O.2     1  UNL1       -0.2703
     26 H         144.8717  141.8667  164.8676 H       1  UNL1        0.1453
     27 H         146.0578  142.3983  163.7638 H       1  UNL1        0.1453
     28 C         142.7569  139.3917  167.4165 C.3     1  UNL1        0.0671
     29 C         142.3311  140.6946  168.0257 C.3     1  UNL1        0.1097
@<TRIPOS>UNITY_ATOM_ATTR
1 1
charge 1
@<TRIPOS>BOND
     1    28    29    1
     2    29     1    1
     3     1     2    1
     4     1     3    1
     5     3     4    1
     6     4     5   ar
     7     5     6   ar
     8     6    10    1
     9    10    11   am
    10    11    12    2
    11    11    13   am
    12    13    16    1
    13    16    17   ar
    14    17    18   ar
    15    18    19   ar
    16    19    20    1
    17    19    21   ar
    18    21    22   ar
    19     6     7   ar
    20     7    23    1
    21    23    24   am
    22    23    25    2
    23     7     8   ar
    24     8     9    1
    25     9     1    1
    26     8     4   ar
    27    22    16   ar
    28    10    14    1
    29    13    15    1
    30    24    26    1
    31    24    27    1
@<TRIPOS>MOLECULE
*****
 29 31 0 0 0
SMALL
GASTEIGER

@<TRIPOS>ATOM
      1 N         140.7852  145.2699  156.9180 N.4     1  UNL1        0.3087
      2 C         141.0462  145.0104  155.4638 C.3     1  UNL1        0.1712
      3 C         141.5789  144.0136  157.1228 C.3     1  UNL1        0.1430
      4 C         141.6539  143.7480  158.5972 C.ar    1  UNL1        0.0651
      5 S         142.1908  142.8074  159.6350 S.2     1  UNL1       -0.0707
      6 C         141.7754  143.3181  160.9827 C.ar    1  UNL1        0.0860
      7 C         140.9818  144.5743  160.7780 C.ar    1  UNL1        0.0747
      8 C         140.9067  144.8400  159.3036 C.ar    1  UNL1        0.0464
      9 C         140.3698  145.7806  158.2658 C.3     1  UNL1        0.1372
     10 N         142.0971  142.6840  162.3035 N.am    1  UNL1       -0.2629
     11 C         141.0862  141.8063  162.9801 C.2     1  UNL1        0.3085
     12 O         139.7536  141.5628  162.3360 O.2     1  UNL1       -0.2521
     13 N         141.4079  141.1721  164.3008 N.am    1  UNL1       -0.2680
     14 H         142.9717  142.8438  162.7262 H       1  UNL1        0.1569
     15 H         142.2826  141.3320  164.7236 H       1  UNL1        0.1564
     16 C         140.3970  140.2945  164.9774 C.ar    1  UNL1        0.0516
     17 C         139.8751  140.6605  166.3352 C.ar    1  UNL1        0.0156
     18 C         138.8641  139.7828  167.0118 C.ar    1  UNL1        0.0127
     19 C         138.3752  138.5391  166.3306 C.ar    1  UNL1        0.0578
     20 CL        137.3643  137.6614  167.0071 Cl      1  UNL1       -0.0822
     21 C         138.8971  138.1731  164.9727 C.ar    1  UNL1        0.0127
     22 C         139.9080  139.0507  164.2962 C.ar    1  UNL1        0.0156
     23 C         140.3705  145.4170  161.8579 C.2     1  UNL1        0.2444
     24 N         141.2201  145.9230  162.9857 N.am    1  UNL1       -0.3253
     25 O         138.9095  145.7537  161.8100 O.2     1  UNL1       -0.2703
     26 H         142.1790  145.7021  163.0172 H       1  UNL1        0.1453
     27 H         140.8189  146.4761  163.6945 H       1  UNL1        0.1453
     28 C         140.2494  146.9350  154.9970 C.3     1  UNL1        0.0671
     29 C         140.0461  146.4719  156.4092 C.3     1  UNL1        0.1097
@<TRIPOS>UNITY_ATOM_ATTR
1 1
charge 1
@<TRIPOS>BOND
     1    28    29    1
     2    29     1    1
     3     1     2    1
     4     1     3    1
     5     3     4    1
     6     4     5   ar
     7     5     6   ar
     8     6    10    1
     9    10    11   am
    10    11    12    2
    11    11    13   am
    12    13    16    1
    13    16    17   ar
    14    17    18   ar
    15    18    19   ar
    16    19    20    1
    17    19    21   ar
    18    21    22   ar
    19     6     7   ar
    20     7    23    1
    21    23    24   am
    22    23    25    2
    23     7     8   ar
    24     8     9    1
    25     9     1    1
    26     8     4   ar
    27    22    16   ar
    28    10    14    1
    29    13    15    1
    30    24    26    1
    31    24    27    1
