@<TRIPOS>MOLECULE
*****
 49 55 0 0 0
SMALL
GASTEIGER

@<TRIPOS>ATOM
      1 C         140.4123  140.7946  159.3047 C.ar    1  UNL1        0.0481
      2 C         141.4416  141.6229  160.0149 C.ar    1  UNL1        0.0176
      3 C         141.0321  142.8752  160.7319 C.ar    1  UNL1        0.0382
      4 C         139.5933  143.2993  160.7385 C.ar    1  UNL1        0.1388
      5 C         138.5640  142.4710  160.0282 C.ar    1  UNL1        0.0382
      6 C         138.9735  141.2187  159.3113 C.ar    1  UNL1        0.0176
      7 N         141.6409  137.0376  157.1539 N.pl3   1  UNL1       -0.3041
      8 C         142.5997  137.7150  158.0876 C.3     1  UNL1        0.1122
      9 C         142.1902  138.9673  158.8045 C.3     1  UNL1        0.1122
     10 N         140.8218  139.5423  158.5878 N.pl3   1  UNL1       -0.3041
     11 C         139.8630  138.8649  157.6540 C.3     1  UNL1        0.1122
     12 C         140.2725  137.6126  156.9371 C.3     1  UNL1        0.1122
     13 C         142.8694  133.2807  155.0031 C.ar    1  UNL1        0.0699
     14 C         143.7424  133.8456  156.0841 C.ar    1  UNL1        0.0190
     15 C         143.3329  135.0979  156.8010 C.ar    1  UNL1        0.0160
     16 C         142.0504  135.7853  156.4369 C.ar    1  UNL1        0.0480
     17 C         141.1773  135.2203  155.3559 C.ar    1  UNL1        0.0160
     18 C         141.5868  133.9680  154.6390 C.ar    1  UNL1        0.0190
     19 N         144.2579  129.8609  153.8018 N.ar    1  UNL1       -0.2024
     20 N         143.5601  130.3415  152.5639 N.ar    1  UNL1       -0.1442
     21 C         142.9550  131.6810  152.8633 C.ar    1  UNL1        0.2073
     22 N         143.2789  132.0283  154.2862 N.ar    1  UNL1       -0.2398
     23 C         144.0840  130.9035  154.8662 C.ar    1  UNL1        0.3522
     24 O         144.6211  130.8334  156.2649 O.2     1  UNL1       -0.2444
     25 C         144.9993  128.5653  153.9493 C.3     1  UNL1        0.1099
     26 C         145.8580  128.0607  152.8278 C.3     1  UNL1        0.0265
     27 C         143.5332  127.3376  155.7081 C.3     1  UNL1        0.0021
     28 C         144.8820  127.7744  155.2184 C.3     1  UNL1        0.0245
     29 O         139.1838  144.5516  161.4554 O.3     1  UNL1       -0.4727
     30 C         138.5795  144.4678  162.8257 C.3     1  UNL1        0.2374
     31 C         139.2200  143.6103  163.8767 C.3     1  UNL1        0.1909
     32 C         140.4956  143.9137  164.6053 C.3     1  UNL1        0.1783
     33 O         140.7613  142.7899  165.5626 O.3     1  UNL1       -0.3266
     34 C         139.6499  141.7918  165.4256 C.3     1  UNL1        0.2315
     35 O         138.6973  142.2989  164.3837 O.3     1  UNL1       -0.3254
     36 C         140.4030  141.0434  166.4851 C.ar    1  UNL1        0.0410
     37 C         139.9061  141.0440  167.9004 C.ar    1  UNL1        0.0022
     38 C         140.6593  140.2956  168.9601 C.ar    1  UNL1        0.0113
     39 C         141.9092  139.5467  168.6043 C.ar    1  UNL1        0.0585
     40 CL        142.6624  138.7983  169.6639 Cl      1  UNL1       -0.0822
     41 C         142.4062  139.5461  167.1890 C.ar    1  UNL1        0.0226
     42 C         141.6530  140.2945  166.1294 C.ar    1  UNL1        0.0591
     43 CL        142.1499  140.2939  164.7141 Cl      1  UNL1       -0.0824
     44 C         138.6960  140.6373  165.5101 C.3     1  UNL1        0.1897
     45 N         138.6028  139.6570  164.3786 N.ar    1  UNL1       -0.2246
     46 C         139.0878  138.2378  164.3993 C.ar    1  UNL1        0.1974
     47 N         138.7930  137.6275  163.0612 N.ar    1  UNL1       -0.2007
     48 C         138.1256  138.6696  162.2134 C.ar    1  UNL1        0.2210
     49 N         138.0081  139.9239  163.0276 N.ar    1  UNL1       -0.1450
@<TRIPOS>BOND
     1    27    28    1
     2    28    25    1
     3    25    26    1
     4    25    19    1
     5    19    20   ar
     6    20    21   ar
     7    21    22   ar
     8    22    13    1
     9    13    14   ar
    10    14    15   ar
    11    15    16   ar
    12    16     7    1
    13     7     8    1
    14     8     9    1
    15     9    10    1
    16    10     1    1
    17     1     2   ar
    18     2     3   ar
    19     3     4   ar
    20     4    29    1
    21    29    30    1
    22    30    31    1
    23    31    32    1
    24    32    33    1
    25    33    34    1
    26    34    44    1
    27    44    45    1
    28    45    46   ar
    29    46    47   ar
    30    47    48   ar
    31    48    49   ar
    32    34    36    1
    33    36    37   ar
    34    37    38   ar
    35    38    39   ar
    36    39    40    1
    37    39    41   ar
    38    41    42   ar
    39    42    43    1
    40    34    35    1
    41     4     5   ar
    42     5     6   ar
    43    10    11    1
    44    11    12    1
    45    16    17   ar
    46    17    18   ar
    47    22    23   ar
    48    23    24    2
    49    23    19   ar
    50    18    13   ar
    51    12     7    1
    52     6     1   ar
    53    35    31    1
    54    49    45   ar
    55    42    36   ar
@<TRIPOS>MOLECULE
*****
 49 55 0 0 0
SMALL
GASTEIGER

@<TRIPOS>ATOM
      1 C         142.8530  141.2476  159.8850 C.ar    1  UNL1        0.0481
      2 C         144.0660  141.5534  160.7127 C.ar    1  UNL1        0.0176
      3 C         144.1312  142.8244  161.5068 C.ar    1  UNL1        0.0382
      4 C         142.9833  143.7894  161.4732 C.ar    1  UNL1        0.1388
      5 C         141.7703  143.4835  160.6455 C.ar    1  UNL1        0.0382
      6 C         141.7052  142.2126  159.8514 C.ar    1  UNL1        0.0176
      7 N         142.6577  137.4349  157.5027 N.pl3   1  UNL1       -0.3041
      8 C         142.6105  137.3862  159.0011 C.3     1  UNL1        0.1122
      9 C         142.6756  138.6572  159.7953 C.3     1  UNL1        0.1122
     10 N         142.7879  139.9767  159.0909 N.pl3   1  UNL1       -0.3041
     11 C         142.8351  140.0254  157.5924 C.3     1  UNL1        0.1122
     12 C         142.7700  138.7545  156.7983 C.3     1  UNL1        0.1122
     13 C         142.4624  133.6223  155.1204 C.ar    1  UNL1        0.0699
     14 C         143.5965  133.8532  156.0745 C.ar    1  UNL1        0.0190
     15 C         143.6616  135.1241  156.8686 C.ar    1  UNL1        0.0160
     16 C         142.5925  136.1640  156.7085 C.ar    1  UNL1        0.0480
     17 C         141.4584  135.9331  155.7544 C.ar    1  UNL1        0.0160
     18 C         141.3933  134.6623  154.9603 C.ar    1  UNL1        0.0190
     19 N         142.3532  129.9973  153.7371 N.ar    1  UNL1       -0.2024
     20 N         142.2409  130.7942  152.4711 N.ar    1  UNL1       -0.1442
     21 C         142.2682  132.2490  152.8353 C.ar    1  UNL1        0.2073
     22 N         142.3973  132.3514  154.3262 N.ar    1  UNL1       -0.2398
     23 C         142.4498  130.9598  154.8835 C.ar    1  UNL1        0.3522
     24 O         142.5767  130.5946  156.3329 O.2     1  UNL1       -0.2444
     25 C         142.3665  128.5008  153.8387 C.3     1  UNL1        0.1099
     26 C         143.5706  127.7291  153.3865 C.3     1  UNL1        0.0265
     27 C         139.8051  128.3691  154.2529 C.3     1  UNL1        0.0021
     28 C         141.1756  127.7761  154.3924 C.3     1  UNL1        0.0245
     29 O         143.0484  145.0603  162.2673 O.3     1  UNL1       -0.4727
     30 C         142.2186  145.2130  163.5074 C.3     1  UNL1        0.2374
     31 C         141.4488  144.0426  164.0437 C.3     1  UNL1        0.1909
     32 C         139.9646  143.8461  163.9503 C.3     1  UNL1        0.1783
     33 O         139.6264  142.5453  164.6163 O.3     1  UNL1       -0.3266
     34 C         140.9017  141.9379  165.1213 C.3     1  UNL1        0.2315
     35 O         142.0279  142.8632  164.7674 O.3     1  UNL1       -0.3254
     36 C         140.0027  140.8374  165.6018 C.ar    1  UNL1        0.0410
     37 C         139.7479  140.6642  167.0698 C.ar    1  UNL1        0.0022
     38 C         138.8489  139.5638  167.5503 C.ar    1  UNL1        0.0113
     39 C         138.2048  138.6365  166.5628 C.ar    1  UNL1        0.0585
     40 CL        137.3059  137.5361  167.0433 Cl      1  UNL1       -0.0822
     41 C         138.4596  138.8096  165.0948 C.ar    1  UNL1        0.0226
     42 C         139.3586  139.9101  164.6142 C.ar    1  UNL1        0.0591
     43 CL        139.6134  140.0832  163.1462 Cl      1  UNL1       -0.0824
     44 C         141.9889  141.1003  165.7267 C.3     1  UNL1        0.1897
     45 N         143.0168  140.4546  164.8456 N.ar    1  UNL1       -0.2246
     46 C         144.4549  140.8628  164.7231 C.ar    1  UNL1        0.1974
     47 N         145.1140  139.9477  163.7341 N.ar    1  UNL1       -0.2007
     48 C         144.0831  138.9738  163.2453 C.ar    1  UNL1        0.2210
     49 N         142.7870  139.2870  163.9323 N.ar    1  UNL1       -0.1450
@<TRIPOS>BOND
     1    27    28    1
     2    28    25    1
     3    25    26    1
     4    25    19    1
     5    19    20   ar
     6    20    21   ar
     7    21    22   ar
     8    22    13    1
     9    13    14   ar
    10    14    15   ar
    11    15    16   ar
    12    16     7    1
    13     7     8    1
    14     8     9    1
    15     9    10    1
    16    10     1    1
    17     1     2   ar
    18     2     3   ar
    19     3     4   ar
    20     4    29    1
    21    29    30    1
    22    30    31    1
    23    31    32    1
    24    32    33    1
    25    33    34    1
    26    34    44    1
    27    44    45    1
    28    45    46   ar
    29    46    47   ar
    30    47    48   ar
    31    48    49   ar
    32    34    36    1
    33    36    37   ar
    34    37    38   ar
    35    38    39   ar
    36    39    40    1
    37    39    41   ar
    38    41    42   ar
    39    42    43    1
    40    34    35    1
    41     4     5   ar
    42     5     6   ar
    43    10    11    1
    44    11    12    1
    45    16    17   ar
    46    17    18   ar
    47    22    23   ar
    48    23    24    2
    49    23    19   ar
    50    18    13   ar
    51    12     7    1
    52     6     1   ar
    53    35    31    1
    54    49    45   ar
    55    42    36   ar
@<TRIPOS>MOLECULE
*****
 49 55 0 0 0
SMALL
GASTEIGER

@<TRIPOS>ATOM
      1 C         140.2836  141.5653  159.2969 C.ar    1  UNL1        0.0481
      2 C         139.0578  140.8046  159.7077 C.ar    1  UNL1        0.0176
      3 C         139.1923  139.5288  160.4850 C.ar    1  UNL1        0.0382
      4 C         140.5526  139.0137  160.8515 C.ar    1  UNL1        0.1388
      5 C         141.7784  139.7744  160.4406 C.ar    1  UNL1        0.0382
      6 C         141.6439  141.0502  159.6633 C.ar    1  UNL1        0.0176
      7 N         139.8801  145.3927  156.9649 N.pl3   1  UNL1       -0.3041
      8 C         140.5249  145.4041  158.3191 C.3     1  UNL1        0.1122
      9 C         140.6594  144.1282  159.0965 C.3     1  UNL1        0.1122
     10 N         140.1491  142.8411  158.5196 N.pl3   1  UNL1       -0.3041
     11 C         139.5043  142.8298  157.1652 C.3     1  UNL1        0.1122
     12 C         139.3698  144.1056  156.3879 C.3     1  UNL1        0.1122
     13 C         139.4764  149.2201  154.6329 C.ar    1  UNL1        0.0699
     14 C         138.7483  149.0541  155.9338 C.ar    1  UNL1        0.0190
     15 C         138.8829  147.7784  156.7111 C.ar    1  UNL1        0.0160
     16 C         139.7455  146.6685  156.1875 C.ar    1  UNL1        0.0480
     17 C         140.4736  146.8345  154.8866 C.ar    1  UNL1        0.0160
     18 C         140.3390  148.1102  154.1093 C.ar    1  UNL1        0.0190
     19 N         139.0827  152.8444  153.3006 N.ar    1  UNL1       -0.2024
     20 N         139.1870  152.0738  152.0179 N.ar    1  UNL1       -0.1442
     21 C         139.3472  150.6224  152.3609 C.ar    1  UNL1        0.2073
     22 N         139.3419  150.4959  153.8555 N.ar    1  UNL1       -0.2398
     23 C         139.1783  151.8692  154.4363 C.ar    1  UNL1        0.3522
     24 O         139.1207  152.2079  155.8964 O.2     1  UNL1       -0.2444
     25 C         138.9125  154.3295  153.4257 C.3     1  UNL1        0.1099
     26 C         139.4615  155.2391  152.3669 C.3     1  UNL1        0.0265
     27 C         136.8280  155.5025  154.4400 C.3     1  UNL1        0.0021
     28 C         138.1932  154.9049  154.6095 C.3     1  UNL1        0.0245
     29 O         140.6871  137.7379  161.6288 O.3     1  UNL1       -0.4727
     30 C         141.6642  137.6505  162.7635 C.3     1  UNL1        0.2374
     31 C         141.4195  138.4240  164.0252 C.3     1  UNL1        0.1909
     32 C         142.3546  138.5234  165.1939 C.3     1  UNL1        0.1783
     33 O         141.7098  139.3947  166.2307 O.3     1  UNL1       -0.3266
     34 C         140.3761  139.8338  165.7029 C.3     1  UNL1        0.2315
     35 O         140.1967  139.2338  164.3399 O.3     1  UNL1       -0.3254
     36 C         140.2722  140.5571  167.0128 C.ar    1  UNL1        0.0410
     37 C         139.4596  139.9725  168.1299 C.ar    1  UNL1        0.0022
     38 C         139.3556  140.6958  169.4400 C.ar    1  UNL1        0.0113
     39 C         140.0643  142.0036  169.6328 C.ar    1  UNL1        0.0585
     40 CL        139.9604  142.7270  170.9428 Cl      1  UNL1       -0.0822
     41 C         140.8770  142.5883  168.5158 C.ar    1  UNL1        0.0226
     42 C         140.9809  141.8650  167.2057 C.ar    1  UNL1        0.0591
     43 CL        141.7936  142.4495  166.0886 Cl      1  UNL1       -0.0824
     44 C         139.0207  140.4241  165.4490 C.3     1  UNL1        0.1897
     45 N         138.8592  141.5275  164.4458 N.ar    1  UNL1       -0.2246
     46 C         137.6870  142.4573  164.3389 C.ar    1  UNL1        0.1974
     47 N         137.9449  143.3993  163.2005 N.ar    1  UNL1       -0.2007
     48 C         139.2765  143.0518  162.6038 C.ar    1  UNL1        0.2210
     49 N         139.8416  141.8950  163.3735 N.ar    1  UNL1       -0.1450
@<TRIPOS>BOND
     1    27    28    1
     2    28    25    1
     3    25    26    1
     4    25    19    1
     5    19    20   ar
     6    20    21   ar
     7    21    22   ar
     8    22    13    1
     9    13    14   ar
    10    14    15   ar
    11    15    16   ar
    12    16     7    1
    13     7     8    1
    14     8     9    1
    15     9    10    1
    16    10     1    1
    17     1     2   ar
    18     2     3   ar
    19     3     4   ar
    20     4    29    1
    21    29    30    1
    22    30    31    1
    23    31    32    1
    24    32    33    1
    25    33    34    1
    26    34    44    1
    27    44    45    1
    28    45    46   ar
    29    46    47   ar
    30    47    48   ar
    31    48    49   ar
    32    34    36    1
    33    36    37   ar
    34    37    38   ar
    35    38    39   ar
    36    39    40    1
    37    39    41   ar
    38    41    42   ar
    39    42    43    1
    40    34    35    1
    41     4     5   ar
    42     5     6   ar
    43    10    11    1
    44    11    12    1
    45    16    17   ar
    46    17    18   ar
    47    22    23   ar
    48    23    24    2
    49    23    19   ar
    50    18    13   ar
    51    12     7    1
    52     6     1   ar
    53    35    31    1
    54    49    45   ar
    55    42    36   ar
@<TRIPOS>MOLECULE
*****
 49 55 0 0 0
SMALL
GASTEIGER

@<TRIPOS>ATOM
      1 C         140.4474  140.9519  159.0710 C.ar    1  UNL1        0.0481
      2 C         139.0492  141.1195  159.5875 C.ar    1  UNL1        0.0176
      3 C         138.6417  142.4046  160.2452 C.ar    1  UNL1        0.0382
      4 C         139.6324  143.5220  160.3864 C.ar    1  UNL1        0.1388
      5 C         141.0306  143.3543  159.8698 C.ar    1  UNL1        0.0382
      6 C         141.4381  142.0693  159.2121 C.ar    1  UNL1        0.0176
      7 N         141.6699  137.0967  157.0980 N.pl3   1  UNL1       -0.3041
      8 C         142.6001  137.7749  158.0597 C.3     1  UNL1        0.1122
      9 C         142.1926  139.0600  158.7174 C.3     1  UNL1        0.1122
     10 N         140.8549  139.6668  158.4134 N.pl3   1  UNL1       -0.3041
     11 C         139.9248  138.9886  157.4517 C.3     1  UNL1        0.1122
     12 C         140.3323  137.7035  156.7940 C.3     1  UNL1        0.1122
     13 C         142.8922  133.2415  155.1249 C.ar    1  UNL1        0.0699
     14 C         141.6185  133.9212  154.7181 C.ar    1  UNL1        0.0190
     15 C         141.2111  135.2062  155.3758 C.ar    1  UNL1        0.0160
     16 C         142.0774  135.8115  156.4403 C.ar    1  UNL1        0.0480
     17 C         143.3511  135.1318  156.8471 C.ar    1  UNL1        0.0160
     18 C         143.7585  133.8468  156.1894 C.ar    1  UNL1        0.0190
     19 N         144.2031  129.7326  154.1074 N.ar    1  UNL1       -0.2024
     20 N         143.6504  130.2251  152.8027 N.ar    1  UNL1       -0.1442
     21 C         143.0921  131.5994  153.0251 C.ar    1  UNL1        0.2073
     22 N         143.2997  131.9563  154.4672 N.ar    1  UNL1       -0.2398
     23 C         143.9863  130.8026  155.1360 C.ar    1  UNL1        0.3522
     24 O         144.3860  130.7313  156.5800 O.2     1  UNL1       -0.2444
     25 C         144.8575  128.4035  154.3421 C.3     1  UNL1        0.1099
     26 C         145.8766  127.8872  153.3701 C.3     1  UNL1        0.0265
     27 C         145.5447  127.2285  156.5551 C.3     1  UNL1        0.0021
     28 C         144.4929  127.5906  155.5489 C.3     1  UNL1        0.0245
     29 O         139.2249  144.8071  161.0440 O.3     1  UNL1       -0.4727
     30 C         139.9791  145.3100  162.2391 C.3     1  UNL1        0.2374
     31 C         140.1559  144.4286  163.4399 C.3     1  UNL1        0.1909
     32 C         139.3487  144.4868  164.7028 C.3     1  UNL1        0.1783
     33 O         139.8648  143.4284  165.6320 O.3     1  UNL1       -0.3266
     34 C         140.9910  142.7160  164.9433 C.3     1  UNL1        0.2315
     35 O         141.1709  143.3342  163.5885 O.3     1  UNL1       -0.3254
     36 C         141.0491  141.9139  166.2095 C.ar    1  UNL1        0.0410
     37 C         142.1820  142.1132  167.1722 C.ar    1  UNL1        0.0022
     38 C         142.2401  141.3111  168.4385 C.ar    1  UNL1        0.0113
     39 C         141.1654  140.3098  168.7419 C.ar    1  UNL1        0.0585
     40 CL        141.2234  139.5077  170.0081 Cl      1  UNL1       -0.0822
     41 C         140.0324  140.1104  167.7792 C.ar    1  UNL1        0.0226
     42 C         139.9743  140.9125  166.5129 C.ar    1  UNL1        0.0591
     43 CL        138.8414  140.7132  165.5502 Cl      1  UNL1       -0.0824
     44 C         142.1293  141.8360  164.5193 C.3     1  UNL1        0.1897
     45 N         141.8542  140.5456  163.8057 N.ar    1  UNL1       -0.2246
     46 C         142.4662  139.2138  164.1245 C.ar    1  UNL1        0.1974
     47 N         141.9091  138.2057  163.1638 N.ar    1  UNL1       -0.2007
     48 C         140.9526  138.9143  162.2511 C.ar    1  UNL1        0.2210
     49 N         140.9187  140.3605  162.6478 N.ar    1  UNL1       -0.1450
@<TRIPOS>BOND
     1    27    28    1
     2    28    25    1
     3    25    26    1
     4    25    19    1
     5    19    20   ar
     6    20    21   ar
     7    21    22   ar
     8    22    13    1
     9    13    14   ar
    10    14    15   ar
    11    15    16   ar
    12    16     7    1
    13     7     8    1
    14     8     9    1
    15     9    10    1
    16    10     1    1
    17     1     2   ar
    18     2     3   ar
    19     3     4   ar
    20     4    29    1
    21    29    30    1
    22    30    31    1
    23    31    32    1
    24    32    33    1
    25    33    34    1
    26    34    44    1
    27    44    45    1
    28    45    46   ar
    29    46    47   ar
    30    47    48   ar
    31    48    49   ar
    32    34    36    1
    33    36    37   ar
    34    37    38   ar
    35    38    39   ar
    36    39    40    1
    37    39    41   ar
    38    41    42   ar
    39    42    43    1
    40    34    35    1
    41     4     5   ar
    42     5     6   ar
    43    10    11    1
    44    11    12    1
    45    16    17   ar
    46    17    18   ar
    47    22    23   ar
    48    23    24    2
    49    23    19   ar
    50    18    13   ar
    51    12     7    1
    52     6     1   ar
    53    35    31    1
    54    49    45   ar
    55    42    36   ar
@<TRIPOS>MOLECULE
*****
 49 55 0 0 0
SMALL
GASTEIGER

@<TRIPOS>ATOM
      1 C         140.9385  141.4295  158.1761 C.ar    1  UNL1        0.0481
      2 C         139.5097  141.8661  158.3104 C.ar    1  UNL1        0.0176
      3 C         139.1902  143.2451  158.8068 C.ar    1  UNL1        0.0382
      4 C         140.2996  144.1875  159.1689 C.ar    1  UNL1        0.1388
      5 C         141.7284  143.7509  159.0346 C.ar    1  UNL1        0.0382
      6 C         142.0478  142.3720  158.5382 C.ar    1  UNL1        0.0176
      7 N         141.8967  137.2926  156.6869 N.pl3   1  UNL1       -0.3041
      8 C         140.8801  138.1310  155.9702 C.3     1  UNL1        0.1122
      9 C         140.5607  139.5100  156.4666 C.3     1  UNL1        0.1122
     10 N         141.2578  140.0506  157.6797 N.pl3   1  UNL1       -0.3041
     11 C         142.2744  139.2122  158.3965 C.3     1  UNL1        0.1122
     12 C         142.5938  137.8332  157.9001 C.3     1  UNL1        0.1122
     13 C         142.8549  133.1557  155.1978 C.ar    1  UNL1        0.0699
     14 C         141.5707  133.8186  154.7961 C.ar    1  UNL1        0.0190
     15 C         141.2513  135.1976  155.2925 C.ar    1  UNL1        0.0160
     16 C         142.2161  135.9136  156.1905 C.ar    1  UNL1        0.0480
     17 C         143.5003  135.2507  156.5922 C.ar    1  UNL1        0.0160
     18 C         143.8197  133.8717  156.0958 C.ar    1  UNL1        0.0190
     19 N         143.7164  129.4116  154.6452 N.ar    1  UNL1       -0.2024
     20 N         143.6154  129.8977  153.2297 N.ar    1  UNL1       -0.1442
     21 C         143.2803  131.3594  153.2645 C.ar    1  UNL1        0.2073
     22 N         143.1743  131.7767  154.7014 N.ar    1  UNL1       -0.2398
     23 C         143.4439  130.5729  155.5547 C.ar    1  UNL1        0.3522
     24 O         143.4413  130.5367  157.0543 O.2     1  UNL1       -0.2444
     25 C         144.0343  128.0103  155.0756 C.3     1  UNL1        0.1099
     26 C         145.4370  127.6438  155.4603 C.3     1  UNL1        0.0265
     27 C         141.9179  127.0176  156.2095 C.3     1  UNL1        0.0021
     28 C         142.9494  126.9754  155.1213 C.3     1  UNL1        0.0245
     29 O         139.9802  145.5664  159.6653 O.3     1  UNL1       -0.4727
     30 C         139.9120  145.8358  161.1393 C.3     1  UNL1        0.2374
     31 C         139.6007  144.7198  162.0921 C.3     1  UNL1        0.1909
     32 C         138.3598  144.5920  162.9251 C.3     1  UNL1        0.1783
     33 O         138.4678  143.3290  163.7270 O.3     1  UNL1       -0.3266
     34 C         139.7755  142.6761  163.3896 C.3     1  UNL1        0.2315
     35 O         140.4757  143.5357  162.3792 O.3     1  UNL1       -0.3254
     36 C         139.3292  141.6346  164.3724 C.ar    1  UNL1        0.0410
     37 C         139.7876  141.7041  165.7989 C.ar    1  UNL1        0.0022
     38 C         139.3413  140.6625  166.7818 C.ar    1  UNL1        0.0113
     39 C         138.4366  139.5515  166.3381 C.ar    1  UNL1        0.0585
     40 CL        137.9902  138.5099  167.3209 Cl      1  UNL1       -0.0822
     41 C         137.9780  139.4819  164.9116 C.ar    1  UNL1        0.0226
     42 C         138.4243  140.5235  163.9287 C.ar    1  UNL1        0.0591
     43 CL        137.9659  140.4540  162.5022 Cl      1  UNL1       -0.0824
     44 C         140.9899  141.8056  163.2577 C.3     1  UNL1        0.1897
     45 N         142.3556  142.3846  163.4803 N.ar    1  UNL1       -0.2246
     46 C         143.5639  142.1480  162.6238 C.ar    1  UNL1        0.1974
     47 N         144.7078  142.9191  163.2126 N.ar    1  UNL1       -0.2007
     48 C         144.2064  143.6323  164.4333 C.ar    1  UNL1        0.2210
     49 N         142.7526  143.3020  164.5987 N.ar    1  UNL1       -0.1450
@<TRIPOS>BOND
     1    27    28    1
     2    28    25    1
     3    25    26    1
     4    25    19    1
     5    19    20   ar
     6    20    21   ar
     7    21    22   ar
     8    22    13    1
     9    13    14   ar
    10    14    15   ar
    11    15    16   ar
    12    16     7    1
    13     7     8    1
    14     8     9    1
    15     9    10    1
    16    10     1    1
    17     1     2   ar
    18     2     3   ar
    19     3     4   ar
    20     4    29    1
    21    29    30    1
    22    30    31    1
    23    31    32    1
    24    32    33    1
    25    33    34    1
    26    34    44    1
    27    44    45    1
    28    45    46   ar
    29    46    47   ar
    30    47    48   ar
    31    48    49   ar
    32    34    36    1
    33    36    37   ar
    34    37    38   ar
    35    38    39   ar
    36    39    40    1
    37    39    41   ar
    38    41    42   ar
    39    42    43    1
    40    34    35    1
    41     4     5   ar
    42     5     6   ar
    43    10    11    1
    44    11    12    1
    45    16    17   ar
    46    17    18   ar
    47    22    23   ar
    48    23    24    2
    49    23    19   ar
    50    18    13   ar
    51    12     7    1
    52     6     1   ar
    53    35    31    1
    54    49    45   ar
    55    42    36   ar
@<TRIPOS>MOLECULE
*****
 49 55 0 0 0
SMALL
GASTEIGER

@<TRIPOS>ATOM
      1 C         141.9628  141.0773  158.3803 C.ar    1  UNL1        0.0481
      2 C         143.1298  141.7096  159.0790 C.ar    1  UNL1        0.0176
      3 C         142.9870  143.0685  159.6979 C.ar    1  UNL1        0.0382
      4 C         141.6772  143.7951  159.6181 C.ar    1  UNL1        0.1388
      5 C         140.5101  143.1627  158.9194 C.ar    1  UNL1        0.0382
      6 C         140.6529  141.8039  158.3005 C.ar    1  UNL1        0.0176
      7 N         142.3912  137.0006  156.5237 N.pl3   1  UNL1       -0.3041
      8 C         142.6868  137.1957  157.9812 C.3     1  UNL1        0.1122
      9 C         142.5440  138.5546  158.6002 C.3     1  UNL1        0.1122
     10 N         142.1056  139.7184  157.7615 N.pl3   1  UNL1       -0.3041
     11 C         141.8099  139.5233  156.3039 C.3     1  UNL1        0.1122
     12 C         141.9527  138.1644  155.6850 C.3     1  UNL1        0.1122
     13 C         142.8196  132.9240  154.6670 C.ar    1  UNL1        0.0699
     14 C         143.0196  133.1006  156.1431 C.ar    1  UNL1        0.0190
     15 C         142.8768  134.4595  156.7619 C.ar    1  UNL1        0.0160
     16 C         142.5340  135.6417  155.9047 C.ar    1  UNL1        0.0480
     17 C         142.3339  135.4651  154.4287 C.ar    1  UNL1        0.0160
     18 C         142.4767  134.1062  153.8099 C.ar    1  UNL1        0.0190
     19 N         143.7319  129.3115  153.5792 N.ar    1  UNL1       -0.2024
     20 N         142.6322  129.6364  152.6121 N.ar    1  UNL1       -0.1442
     21 C         142.1567  131.0292  152.9019 C.ar    1  UNL1        0.2073
     22 N         142.9624  131.5650  154.0481 N.ar    1  UNL1       -0.2398
     23 C         143.9359  130.5034  154.4667 C.ar    1  UNL1        0.3522
     24 O         144.9375  130.6143  155.5777 O.2     1  UNL1       -0.2444
     25 C         144.4937  128.0211  153.6469 C.3     1  UNL1        0.1099
     26 C         143.9282  126.8550  154.4022 C.3     1  UNL1        0.0265
     27 C         146.8838  127.0088  153.5353 C.3     1  UNL1        0.0021
     28 C         145.8211  127.8968  152.9594 C.3     1  UNL1        0.0245
     29 O         141.5344  145.1540  160.2370 O.3     1  UNL1       -0.4727
     30 C         141.0943  145.2852  161.6649 C.3     1  UNL1        0.2374
     31 C         140.5803  144.0857  162.4046 C.3     1  UNL1        0.1909
     32 C         139.1564  143.6154  162.4406 C.3     1  UNL1        0.1783
     33 O         139.0960  142.3850  163.2964 O.3     1  UNL1       -0.3266
     34 C         140.4827  142.0949  163.7894 C.3     1  UNL1        0.2315
     35 O         141.4000  143.1460  163.2383 O.3     1  UNL1       -0.3254
     36 C         139.8266  140.9324  164.4735 C.ar    1  UNL1        0.0410
     37 C         139.4199  139.7268  163.6791 C.ar    1  UNL1        0.0022
     38 C         138.7637  138.5642  164.3632 C.ar    1  UNL1        0.0113
     39 C         138.5143  138.6072  165.8416 C.ar    1  UNL1        0.0585
     40 CL        137.8582  137.4447  166.5257 Cl      1  UNL1       -0.0822
     41 C         138.9210  139.8128  166.6361 C.ar    1  UNL1        0.0226
     42 C         139.5772  140.9754  165.9520 C.ar    1  UNL1        0.0591
     43 CL        139.9839  142.1810  166.7464 Cl      1  UNL1       -0.0824
     44 C         141.7322  141.5617  164.4254 C.3     1  UNL1        0.1897
     45 N         142.9561  141.3248  163.5912 N.ar    1  UNL1       -0.2246
     46 C         143.1032  140.2901  162.5153 C.ar    1  UNL1        0.1974
     47 N         144.4858  140.4069  161.9457 N.ar    1  UNL1       -0.2007
     48 C         145.1934  141.5139  162.6696 C.ar    1  UNL1        0.2210
     49 N         144.2480  142.0812  163.6866 N.ar    1  UNL1       -0.1450
@<TRIPOS>BOND
     1    27    28    1
     2    28    25    1
     3    25    26    1
     4    25    19    1
     5    19    20   ar
     6    20    21   ar
     7    21    22   ar
     8    22    13    1
     9    13    14   ar
    10    14    15   ar
    11    15    16   ar
    12    16     7    1
    13     7     8    1
    14     8     9    1
    15     9    10    1
    16    10     1    1
    17     1     2   ar
    18     2     3   ar
    19     3     4   ar
    20     4    29    1
    21    29    30    1
    22    30    31    1
    23    31    32    1
    24    32    33    1
    25    33    34    1
    26    34    44    1
    27    44    45    1
    28    45    46   ar
    29    46    47   ar
    30    47    48   ar
    31    48    49   ar
    32    34    36    1
    33    36    37   ar
    34    37    38   ar
    35    38    39   ar
    36    39    40    1
    37    39    41   ar
    38    41    42   ar
    39    42    43    1
    40    34    35    1
    41     4     5   ar
    42     5     6   ar
    43    10    11    1
    44    11    12    1
    45    16    17   ar
    46    17    18   ar
    47    22    23   ar
    48    23    24    2
    49    23    19   ar
    50    18    13   ar
    51    12     7    1
    52     6     1   ar
    53    35    31    1
    54    49    45   ar
    55    42    36   ar
@<TRIPOS>MOLECULE
*****
 49 55 0 0 0
SMALL
GASTEIGER

@<TRIPOS>ATOM
      1 C         142.1727  136.8021  156.8138 C.ar    1  UNL1        0.0481
      2 C         143.3520  136.0147  156.3247 C.ar    1  UNL1        0.0176
      3 C         143.3174  135.3772  154.9673 C.ar    1  UNL1        0.0382
      4 C         142.1034  135.5271  154.0991 C.ar    1  UNL1        0.1388
      5 C         140.9241  136.3146  154.5882 C.ar    1  UNL1        0.0382
      6 C         140.9587  136.9520  155.9455 C.ar    1  UNL1        0.0176
      7 N         142.2766  138.7147  160.8858 N.pl3   1  UNL1       -0.3041
      8 C         143.1499  137.5314  160.5905 C.3     1  UNL1        0.1122
      9 C         143.1153  136.8939  159.2331 C.3     1  UNL1        0.1122
     10 N         142.2073  137.4396  158.1711 N.pl3   1  UNL1       -0.3041
     11 C         141.3340  138.6229  158.4665 C.3     1  UNL1        0.1122
     12 C         141.3686  139.2604  159.8238 C.3     1  UNL1        0.1122
     13 C         142.3805  140.6272  164.9578 C.ar    1  UNL1        0.0699
     14 C         143.5718  139.8665  164.4559 C.ar    1  UNL1        0.0190
     15 C         143.5372  139.2290  163.0986 C.ar    1  UNL1        0.0160
     16 C         142.3112  139.3522  162.2432 C.ar    1  UNL1        0.0480
     17 C         141.1199  140.1130  162.7450 C.ar    1  UNL1        0.0160
     18 C         141.1545  140.7505  164.1024 C.ar    1  UNL1        0.0190
     19 N         141.8644  141.8495  168.6054 N.ar    1  UNL1       -0.2024
     20 N         143.0724  142.6422  168.2023 N.ar    1  UNL1       -0.1442
     21 C         143.4127  142.2808  166.7869 C.ar    1  UNL1        0.2073
     22 N         142.4151  141.2648  166.3152 N.ar    1  UNL1       -0.2398
     23 C         141.4582  140.9983  167.4391 C.ar    1  UNL1        0.3522
     24 O         140.2987  140.0474  167.4031 O.2     1  UNL1       -0.2444
     25 C         141.1824  141.8994  169.9405 C.3     1  UNL1        0.1099
     26 C         141.6563  141.0183  171.0581 C.3     1  UNL1        0.0265
     27 C         140.2387  144.3143  170.1067 C.3     1  UNL1        0.0021
     28 C         140.0265  142.8304  170.1580 C.3     1  UNL1        0.0245
     29 O         142.0688  134.8896  152.7418 O.3     1  UNL1       -0.4727
     30 C         141.6745  133.4494  152.5995 C.3     1  UNL1        0.2374
     31 C         141.9243  132.4888  153.7241 C.3     1  UNL1        0.1909
     32 C         140.9283  132.0724  154.7656 C.3     1  UNL1        0.1783
     33 O         141.6023  131.1021  155.6899 O.3     1  UNL1       -0.3266
     34 C         143.0149  130.9189  155.2196 C.3     1  UNL1        0.2315
     35 O         143.2138  131.7758  154.0047 O.3     1  UNL1       -0.3254
     36 C         143.1155  129.9827  156.3873 C.ar    1  UNL1        0.0410
     37 C         143.9249  130.3680  157.5899 C.ar    1  UNL1        0.0022
     38 C         144.0257  129.4318  158.7576 C.ar    1  UNL1        0.0113
     39 C         143.3170  128.1103  158.7226 C.ar    1  UNL1        0.0585
     40 CL        143.4177  127.1741  159.8903 Cl      1  UNL1       -0.0822
     41 C         142.5076  127.7249  157.5200 C.ar    1  UNL1        0.0226
     42 C         142.4068  128.6611  156.3523 C.ar    1  UNL1        0.0591
     43 CL        141.5974  128.2757  155.1497 Cl      1  UNL1       -0.0824
     44 C         144.4484  130.5398  154.9935 C.3     1  UNL1        0.1897
     45 N         144.7917  129.4494  154.0223 N.ar    1  UNL1       -0.2246
     46 C         145.4653  128.1514  154.3560 C.ar    1  UNL1        0.1974
     47 N         145.6115  127.3654  153.0869 N.ar    1  UNL1       -0.2007
     48 C         145.0283  128.1776  151.9688 C.ar    1  UNL1        0.2210
     49 N         144.5216  129.4656  152.5469 N.ar    1  UNL1       -0.1450
@<TRIPOS>BOND
     1    27    28    1
     2    28    25    1
     3    25    26    1
     4    25    19    1
     5    19    20   ar
     6    20    21   ar
     7    21    22   ar
     8    22    13    1
     9    13    14   ar
    10    14    15   ar
    11    15    16   ar
    12    16     7    1
    13     7     8    1
    14     8     9    1
    15     9    10    1
    16    10     1    1
    17     1     2   ar
    18     2     3   ar
    19     3     4   ar
    20     4    29    1
    21    29    30    1
    22    30    31    1
    23    31    32    1
    24    32    33    1
    25    33    34    1
    26    34    44    1
    27    44    45    1
    28    45    46   ar
    29    46    47   ar
    30    47    48   ar
    31    48    49   ar
    32    34    36    1
    33    36    37   ar
    34    37    38   ar
    35    38    39   ar
    36    39    40    1
    37    39    41   ar
    38    41    42   ar
    39    42    43    1
    40    34    35    1
    41     4     5   ar
    42     5     6   ar
    43    10    11    1
    44    11    12    1
    45    16    17   ar
    46    17    18   ar
    47    22    23   ar
    48    23    24    2
    49    23    19   ar
    50    18    13   ar
    51    12     7    1
    52     6     1   ar
    53    35    31    1
    54    49    45   ar
    55    42    36   ar
@<TRIPOS>MOLECULE
*****
 49 55 0 0 0
SMALL
GASTEIGER

@<TRIPOS>ATOM
      1 C         140.8625  140.4768  155.6005 C.ar    1  UNL1        0.0481
      2 C         139.4367  140.9428  155.6031 C.ar    1  UNL1        0.0176
      3 C         139.1252  142.4047  155.4769 C.ar    1  UNL1        0.0382
      4 C         140.2395  143.4006  155.3482 C.ar    1  UNL1        0.1388
      5 C         141.6653  142.9346  155.3457 C.ar    1  UNL1        0.0382
      6 C         141.9768  141.4727  155.4719 C.ar    1  UNL1        0.0176
      7 N         141.7968  136.0912  155.9790 N.pl3   1  UNL1       -0.3041
      8 C         142.8556  137.1118  156.2744 C.3     1  UNL1        0.1122
      9 C         142.5442  138.5737  156.1482 C.3     1  UNL1        0.1122
     10 N         141.1740  139.0150  155.7267 N.pl3   1  UNL1       -0.3041
     11 C         140.1151  137.9943  155.4313 C.3     1  UNL1        0.1122
     12 C         140.4266  136.5325  155.5574 C.3     1  UNL1        0.1122
     13 C         142.7310  131.7056  156.3573 C.ar    1  UNL1        0.0699
     14 C         141.6812  132.1681  155.3910 C.ar    1  UNL1        0.0190
     15 C         141.3698  133.6299  155.2649 C.ar    1  UNL1        0.0160
     16 C         142.1083  134.6293  156.1051 C.ar    1  UNL1        0.0480
     17 C         143.1581  134.1668  157.0715 C.ar    1  UNL1        0.0160
     18 C         143.4695  132.7049  157.1976 C.ar    1  UNL1        0.0190
     19 N         144.0383  128.1490  157.1986 N.ar    1  UNL1       -0.2024
     20 N         143.0049  127.8390  156.1564 N.ar    1  UNL1       -0.1442
     21 C         142.3895  129.1335  155.7144 C.ar    1  UNL1        0.2073
     22 N         143.0424  130.2436  156.4835 N.ar    1  UNL1       -0.2398
     23 C         144.0614  129.6351  157.4007 C.ar    1  UNL1        0.3522
     24 O         144.9479  130.3817  158.3529 O.2     1  UNL1       -0.2444
     25 C         144.8976  127.1485  157.9133 C.3     1  UNL1        0.1099
     26 C         146.1669  126.6617  157.2795 C.3     1  UNL1        0.0265
     27 C         143.7754  127.5387  160.2237 C.3     1  UNL1        0.0021
     28 C         144.4875  126.6349  159.2616 C.3     1  UNL1        0.0245
     29 O         139.9281  144.8624  155.2221 O.3     1  UNL1       -0.4727
     30 C         139.5771  145.6624  156.4414 C.3     1  UNL1        0.2374
     31 C         140.3075  145.4251  157.7300 C.3     1  UNL1        0.1909
     32 C         141.6808  145.9239  158.0698 C.3     1  UNL1        0.1783
     33 O         142.0149  145.4545  159.4547 O.3     1  UNL1       -0.3266
     34 C         140.8481  144.6655  159.9708 C.3     1  UNL1        0.2315
     35 O         139.7929  144.6474  158.9049 O.3     1  UNL1       -0.3254
     36 C         141.6964  144.5120  161.1983 C.ar    1  UNL1        0.0410
     37 C         141.3131  145.2136  162.4674 C.ar    1  UNL1        0.0022
     38 C         142.1614  145.0601  163.6950 C.ar    1  UNL1        0.0113
     39 C         143.3931  144.2051  163.6533 C.ar    1  UNL1        0.0585
     40 CL        144.2415  144.0516  164.8808 Cl      1  UNL1       -0.0822
     41 C         143.7766  143.5035  162.3842 C.ar    1  UNL1        0.0226
     42 C         142.9282  143.6570  161.1566 C.ar    1  UNL1        0.0591
     43 CL        143.3116  142.9554  159.8874 Cl      1  UNL1       -0.0824
     44 C         139.8587  143.8445  160.7435 C.3     1  UNL1        0.1897
     45 N         139.4525  142.4908  160.2411 N.ar    1  UNL1       -0.2246
     46 C         140.2970  141.5674  159.4141 C.ar    1  UNL1        0.1974
     47 N         139.4969  140.3288  159.1393 N.ar    1  UNL1       -0.2007
     48 C         138.1578  140.4867  159.7965 C.ar    1  UNL1        0.2210
     49 N         138.1304  141.8229  160.4774 N.ar    1  UNL1       -0.1450
@<TRIPOS>BOND
     1    27    28    1
     2    28    25    1
     3    25    26    1
     4    25    19    1
     5    19    20   ar
     6    20    21   ar
     7    21    22   ar
     8    22    13    1
     9    13    14   ar
    10    14    15   ar
    11    15    16   ar
    12    16     7    1
    13     7     8    1
    14     8     9    1
    15     9    10    1
    16    10     1    1
    17     1     2   ar
    18     2     3   ar
    19     3     4   ar
    20     4    29    1
    21    29    30    1
    22    30    31    1
    23    31    32    1
    24    32    33    1
    25    33    34    1
    26    34    44    1
    27    44    45    1
    28    45    46   ar
    29    46    47   ar
    30    47    48   ar
    31    48    49   ar
    32    34    36    1
    33    36    37   ar
    34    37    38   ar
    35    38    39   ar
    36    39    40    1
    37    39    41   ar
    38    41    42   ar
    39    42    43    1
    40    34    35    1
    41     4     5   ar
    42     5     6   ar
    43    10    11    1
    44    11    12    1
    45    16    17   ar
    46    17    18   ar
    47    22    23   ar
    48    23    24    2
    49    23    19   ar
    50    18    13   ar
    51    12     7    1
    52     6     1   ar
    53    35    31    1
    54    49    45   ar
    55    42    36   ar
@<TRIPOS>MOLECULE
*****
 49 55 0 0 0
SMALL
GASTEIGER

@<TRIPOS>ATOM
      1 C         140.7484  141.9969  158.7098 C.ar    1  UNL1        0.0481
      2 C         139.6201  141.0271  158.9005 C.ar    1  UNL1        0.0176
      3 C         139.8595  139.7285  159.6121 C.ar    1  UNL1        0.0382
      4 C         141.2271  139.3997  160.1330 C.ar    1  UNL1        0.1388
      5 C         142.3555  140.3695  159.9423 C.ar    1  UNL1        0.0382
      6 C         142.1161  141.6681  159.2307 C.ar    1  UNL1        0.0176
      7 N         140.0302  145.8926  156.5750 N.pl3   1  UNL1       -0.3041
      8 C         141.1128  145.7922  157.6084 C.3     1  UNL1        0.1122
      9 C         141.3522  144.4936  158.3200 C.3     1  UNL1        0.1122
     10 N         140.5090  143.2955  157.9982 N.pl3   1  UNL1       -0.3041
     11 C         139.4264  143.3960  156.9648 C.3     1  UNL1        0.1122
     12 C         139.1870  144.6945  156.2532 C.3     1  UNL1        0.1122
     13 C         139.3119  149.7884  154.4403 C.ar    1  UNL1        0.0699
     14 C         138.6126  149.5033  155.7363 C.ar    1  UNL1        0.0190
     15 C         138.8520  148.2048  156.4478 C.ar    1  UNL1        0.0160
     16 C         139.7908  147.1913  155.8634 C.ar    1  UNL1        0.0480
     17 C         140.4901  147.4763  154.5674 C.ar    1  UNL1        0.0160
     18 C         140.2507  148.7749  153.8559 C.ar    1  UNL1        0.0190
     19 N         138.6613  153.4391  153.2935 N.ar    1  UNL1       -0.2024
     20 N         138.7467  152.7315  151.9736 N.ar    1  UNL1       -0.1442
     21 C         139.0008  151.2779  152.2426 C.ar    1  UNL1        0.2073
     22 N         139.0725  151.0870  153.7287 N.ar    1  UNL1       -0.2398
     23 C         138.8627  152.4227  154.3782 C.ar    1  UNL1        0.3522
     24 O         138.8554  152.6944  155.8533 O.2     1  UNL1       -0.2444
     25 C         138.4175  154.9055  153.4936 C.3     1  UNL1        0.1099
     26 C         138.5546  155.8530  152.3389 C.3     1  UNL1        0.0265
     27 C         136.5986  155.7120  155.1644 C.3     1  UNL1        0.0021
     28 C         138.0364  155.4245  154.8484 C.3     1  UNL1        0.0245
     29 O         141.4665  138.1011  160.8445 O.3     1  UNL1       -0.4727
     30 C         142.5343  138.0066  161.8938 C.3     1  UNL1        0.2374
     31 C         142.3986  138.7774  163.1735 C.3     1  UNL1        0.1909
     32 C         142.6519  138.2468  164.5534 C.3     1  UNL1        0.1783
     33 O         142.3957  139.3555  165.5307 O.3     1  UNL1       -0.3266
     34 C         141.9841  140.5714  164.7547 C.3     1  UNL1        0.2315
     35 O         141.9859  140.2141  163.2979 O.3     1  UNL1       -0.3254
     36 C         141.8922  141.2108  166.1085 C.ar    1  UNL1        0.0410
     37 C         143.1172  141.7962  166.7461 C.ar    1  UNL1        0.0022
     38 C         143.0254  142.4357  168.0999 C.ar    1  UNL1        0.0113
     39 C         141.7086  142.4896  168.8160 C.ar    1  UNL1        0.0585
     40 CL        141.6168  143.1290  170.1698 Cl      1  UNL1       -0.0822
     41 C         140.4835  141.9042  168.1785 C.ar    1  UNL1        0.0226
     42 C         140.5753  141.2648  166.8246 C.ar    1  UNL1        0.0591
     43 CL        139.3503  140.6794  166.1871 Cl      1  UNL1       -0.0824
     44 C         141.5532  141.9210  164.2617 C.3     1  UNL1        0.1897
     45 N         142.5698  142.8805  163.7178 N.ar    1  UNL1       -0.2246
     46 C         143.7920  142.5163  162.9281 C.ar    1  UNL1        0.1974
     47 N         144.5202  143.7833  162.5903 N.ar    1  UNL1       -0.2007
     48 C         143.7481  144.9307  163.1711 C.ar    1  UNL1        0.2210
     49 N         142.5427  144.3727  163.8680 N.ar    1  UNL1       -0.1450
@<TRIPOS>BOND
     1    27    28    1
     2    28    25    1
     3    25    26    1
     4    25    19    1
     5    19    20   ar
     6    20    21   ar
     7    21    22   ar
     8    22    13    1
     9    13    14   ar
    10    14    15   ar
    11    15    16   ar
    12    16     7    1
    13     7     8    1
    14     8     9    1
    15     9    10    1
    16    10     1    1
    17     1     2   ar
    18     2     3   ar
    19     3     4   ar
    20     4    29    1
    21    29    30    1
    22    30    31    1
    23    31    32    1
    24    32    33    1
    25    33    34    1
    26    34    44    1
    27    44    45    1
    28    45    46   ar
    29    46    47   ar
    30    47    48   ar
    31    48    49   ar
    32    34    36    1
    33    36    37   ar
    34    37    38   ar
    35    38    39   ar
    36    39    40    1
    37    39    41   ar
    38    41    42   ar
    39    42    43    1
    40    34    35    1
    41     4     5   ar
    42     5     6   ar
    43    10    11    1
    44    11    12    1
    45    16    17   ar
    46    17    18   ar
    47    22    23   ar
    48    23    24    2
    49    23    19   ar
    50    18    13   ar
    51    12     7    1
    52     6     1   ar
    53    35    31    1
    54    49    45   ar
    55    42    36   ar
