@<TRIPOS>MOLECULE
*****
 36 40 0 0 0
SMALL
GASTEIGER

@<TRIPOS>ATOM
      1 N         138.1463  140.0764  162.9296 N.3     1  UNL1       -0.2689
      2 C         137.8735  140.8966  164.1555 C.3     1  UNL1        0.0737
      3 C         137.7416  142.3868  164.0468 C.3     1  UNL1        0.0356
      4 C         137.8825  143.0568  162.7122 C.3     1  UNL1        0.0843
      5 C         138.1554  142.2367  161.4863 C.3     1  UNL1        0.1407
      6 O         138.2963  142.9067  160.1517 O.3     1  UNL1       -0.3817
      7 C         138.2872  140.7465  161.5950 C.3     1  UNL1        0.1031
      8 H         138.1842  143.8644  160.2573 H       1  UNL1        0.2105
      9 N         137.7506  144.5471  162.6035 N.3     1  UNL1       -0.2915
     10 H         137.1524  144.8467  163.3734 H       1  UNL1        0.1236
     11 C         138.9746  145.4133  162.6438 C.3     1  UNL1        0.1153
     12 C         140.3360  144.7936  162.5316 C.ar    1  UNL1        0.0782
     13 C         141.0976  144.4269  163.7708 C.ar    1  UNL1        0.0562
     14 C         142.4590  143.8072  163.6586 C.ar    1  UNL1        0.1752
     15 C         143.0588  143.5541  162.3072 C.ar    1  UNL1        0.1914
     16 C         142.2972  143.9208  161.0680 C.ar    1  UNL1        0.1384
     17 N         140.9357  144.5405  161.1803 N.ar    1  UNL1       -0.2434
     18 O         144.4201  142.9344  162.1950 O.3     1  UNL1       -0.4668
     19 C         145.1817  142.5678  163.4341 C.3     1  UNL1        0.2527
     20 C         144.5820  142.8208  164.7855 C.3     1  UNL1        0.2526
     21 O         143.2206  143.4406  164.8977 O.3     1  UNL1       -0.4683
     22 C         138.2782  138.5862  163.0383 C.3     1  UNL1        0.0970
     23 C         139.1129  137.9848  164.1300 C.3     1  UNL1        0.1263
     24 C         140.4871  140.0059  167.9084 C.ar    1  UNL1        0.0699
     25 C         141.9233  140.4097  168.0632 C.ar    1  UNL1        0.0104
     26 C         142.9016  140.1398  166.9586 C.ar    1  UNL1        0.0021
     27 C         142.4435  139.4661  165.6991 C.ar    1  UNL1        0.0161
     28 C         143.4217  139.1962  164.5945 C.ar    1  UNL1        0.0063
     29 C         142.9637  138.5225  163.3350 C.ar    1  UNL1        0.0608
     30 C         141.5274  138.1187  163.1802 C.ar    1  UNL1        0.2610
     31 O         141.0693  137.4450  161.9207 O.2     1  UNL1       -0.2670
     32 N         140.5491  138.3886  164.2848 N.ar    1  UNL1       -0.2941
     33 C         141.0072  139.0623  165.5443 C.ar    1  UNL1        0.0631
     34 C         140.0290  139.3322  166.6490 C.ar    1  UNL1        0.0275
     35 N         138.5306  140.5457  170.1177 N.1     1  UNL1       -0.1908
     36 C         139.5088  140.2758  169.0131 C.1     1  UNL1        0.1005
@<TRIPOS>BOND
     1    35    36    3
     2    36    24    1
     3    24    25   ar
     4    25    26   ar
     5    26    27   ar
     6    27    28   ar
     7    28    29   ar
     8    29    30   ar
     9    30    31    2
    10    30    32   ar
    11    32    23    1
    12    23    22    1
    13    22     1    1
    14     1     2    1
    15     2     3    1
    16     3     4    1
    17     4     9    1
    18     9    11    1
    19    11    12    1
    20    12    13   ar
    21    13    14   ar
    22    14    15   ar
    23    15    16   ar
    24    16    17   ar
    25    15    18    1
    26    18    19    1
    27    19    20    1
    28    20    21    1
    29     4     5    1
    30     5     6    1
    31     5     7    1
    32    32    33   ar
    33    33    34   ar
    34    34    24   ar
    35    33    27   ar
    36     7     1    1
    37    17    12   ar
    38    21    14    1
    39     9    10    1
    40     6     8    1
@<TRIPOS>MOLECULE
*****
 36 40 0 0 0
SMALL
GASTEIGER

@<TRIPOS>ATOM
      1 N         138.0578  141.2371  163.9134 N.3     1  UNL1       -0.2689
      2 C         137.8296  141.4748  162.4500 C.3     1  UNL1        0.0737
      3 C         137.9617  142.8581  161.8853 C.3     1  UNL1        0.0356
      4 C         138.3219  144.0038  162.7840 C.3     1  UNL1        0.0843
      5 C         138.5500  143.7661  164.2474 C.3     1  UNL1        0.1407
      6 O         138.9102  144.9119  165.1461 O.3     1  UNL1       -0.3817
      7 C         138.4180  142.3828  164.8121 C.3     1  UNL1        0.1031
      8 H         138.9540  145.7295  164.6259 H       1  UNL1        0.2105
      9 N         138.4539  145.3872  162.2193 N.3     1  UNL1       -0.2915
     10 H         138.0736  146.0273  162.9164 H       1  UNL1        0.1236
     11 C         139.8048  145.9156  161.8375 C.3     1  UNL1        0.1153
     12 C         141.0441  145.1936  162.2766 C.ar    1  UNL1        0.0782
     13 C         141.6362  144.1236  161.4080 C.ar    1  UNL1        0.0562
     14 C         142.8755  143.4015  161.8470 C.ar    1  UNL1        0.1752
     15 C         143.5227  143.7495  163.1548 C.ar    1  UNL1        0.1914
     16 C         142.9306  144.8195  164.0234 C.ar    1  UNL1        0.1384
     17 N         141.6913  145.5415  163.5843 N.ar    1  UNL1       -0.2434
     18 O         144.7620  143.0274  163.5939 O.3     1  UNL1       -0.4668
     19 C         145.3541  141.9574  162.7252 C.3     1  UNL1        0.2527
     20 C         144.7070  141.6095  161.4176 C.3     1  UNL1        0.2526
     21 O         143.4676  142.3315  160.9784 O.3     1  UNL1       -0.4683
     22 C         137.9257  139.8537  164.4781 C.3     1  UNL1        0.0970
     23 C         138.4704  139.5449  165.8412 C.3     1  UNL1        0.1263
     24 C         140.6682  141.4943  169.2500 C.ar    1  UNL1        0.0699
     25 C         142.1367  141.2496  169.4331 C.ar    1  UNL1        0.0104
     26 C         142.8726  140.3551  168.4800 C.ar    1  UNL1        0.0021
     27 C         142.1400  139.7054  167.3438 C.ar    1  UNL1        0.0161
     28 C         142.8760  138.8109  166.3907 C.ar    1  UNL1        0.0063
     29 C         142.1434  138.1612  165.2545 C.ar    1  UNL1        0.0608
     30 C         140.6748  138.4058  165.0713 C.ar    1  UNL1        0.2610
     31 O         139.9422  137.7560  163.9350 O.2     1  UNL1       -0.2670
     32 N         139.9389  139.3003  166.0244 N.ar    1  UNL1       -0.2941
     33 C         140.6715  139.9500  167.1606 C.ar    1  UNL1        0.0631
     34 C         139.9356  140.8445  168.1137 C.ar    1  UNL1        0.0275
     35 N         139.1963  143.2831  171.1562 N.1     1  UNL1       -0.1908
     36 C         139.9323  142.3887  170.2031 C.1     1  UNL1        0.1005
@<TRIPOS>BOND
     1    35    36    3
     2    36    24    1
     3    24    25   ar
     4    25    26   ar
     5    26    27   ar
     6    27    28   ar
     7    28    29   ar
     8    29    30   ar
     9    30    31    2
    10    30    32   ar
    11    32    23    1
    12    23    22    1
    13    22     1    1
    14     1     2    1
    15     2     3    1
    16     3     4    1
    17     4     9    1
    18     9    11    1
    19    11    12    1
    20    12    13   ar
    21    13    14   ar
    22    14    15   ar
    23    15    16   ar
    24    16    17   ar
    25    15    18    1
    26    18    19    1
    27    19    20    1
    28    20    21    1
    29     4     5    1
    30     5     6    1
    31     5     7    1
    32    32    33   ar
    33    33    34   ar
    34    34    24   ar
    35    33    27   ar
    36     7     1    1
    37    17    12   ar
    38    21    14    1
    39     9    10    1
    40     6     8    1
@<TRIPOS>MOLECULE
*****
 36 40 0 0 0
SMALL
GASTEIGER

@<TRIPOS>ATOM
      1 N         139.9593  143.8004  164.0804 N.3     1  UNL1       -0.2689
      2 C         140.5226  142.9717  165.1966 C.3     1  UNL1        0.0737
      3 C         142.0078  142.8728  165.3816 C.3     1  UNL1        0.0356
      4 C         142.9298  143.6026  164.4503 C.3     1  UNL1        0.0843
      5 C         142.3665  144.4313  163.3341 C.3     1  UNL1        0.1407
      6 O         143.2886  145.1611  162.4028 O.3     1  UNL1       -0.3817
      7 C         140.8813  144.5302  163.1491 C.3     1  UNL1        0.1031
      8 H         144.2084  144.9919  162.6601 H       1  UNL1        0.2105
      9 N         144.4151  143.5037  164.6353 N.3     1  UNL1       -0.2915
     10 H         144.5885  143.5211  165.6403 H       1  UNL1        0.1236
     11 C         145.1622  142.3241  164.0873 C.3     1  UNL1        0.1153
     12 C         144.7030  141.6690  162.8185 C.ar    1  UNL1        0.0782
     13 C         144.2908  140.2267  162.8257 C.ar    1  UNL1        0.0562
     14 C         143.8315  139.5716  161.5569 C.ar    1  UNL1        0.1752
     15 C         143.7845  140.3587  160.2809 C.ar    1  UNL1        0.1914
     16 C         144.1967  141.8009  160.2736 C.ar    1  UNL1        0.1384
     17 N         144.6559  142.4561  161.5425 N.ar    1  UNL1       -0.2434
     18 O         143.3252  139.7036  159.0121 O.3     1  UNL1       -0.4668
     19 C         142.9130  138.2613  159.0193 C.3     1  UNL1        0.2527
     20 C         142.9601  137.4742  160.2953 C.3     1  UNL1        0.2526
     21 O         143.4193  138.1294  161.5642 O.3     1  UNL1       -0.4683
     22 C         138.4740  143.8993  163.8954 C.3     1  UNL1        0.0970
     23 C         137.7408  142.8359  163.1328 C.3     1  UNL1        0.1263
     24 C         138.4766  138.8662  165.1201 C.ar    1  UNL1        0.0699
     25 C         139.2427  137.7971  164.3990 C.ar    1  UNL1        0.0104
     26 C         139.7636  138.0512  163.0155 C.ar    1  UNL1        0.0021
     27 C         139.5183  139.3744  162.3531 C.ar    1  UNL1        0.0161
     28 C         140.0392  139.6285  160.9696 C.ar    1  UNL1        0.0063
     29 C         139.7940  140.9517  160.3071 C.ar    1  UNL1        0.0608
     30 C         139.0278  142.0209  161.0282 C.ar    1  UNL1        0.2610
     31 O         138.7825  143.3442  160.3657 O.2     1  UNL1       -0.2670
     32 N         138.5069  141.7668  162.4117 N.ar    1  UNL1       -0.2941
     33 C         138.7522  140.4435  163.0741 C.ar    1  UNL1        0.0631
     34 C         138.2313  140.1894  164.4577 C.ar    1  UNL1        0.0275
     35 N         137.4348  138.3579  167.8871 N.1     1  UNL1       -0.1908
     36 C         137.9557  138.6121  166.5036 C.1     1  UNL1        0.1005
@<TRIPOS>BOND
     1    35    36    3
     2    36    24    1
     3    24    25   ar
     4    25    26   ar
     5    26    27   ar
     6    27    28   ar
     7    28    29   ar
     8    29    30   ar
     9    30    31    2
    10    30    32   ar
    11    32    23    1
    12    23    22    1
    13    22     1    1
    14     1     2    1
    15     2     3    1
    16     3     4    1
    17     4     9    1
    18     9    11    1
    19    11    12    1
    20    12    13   ar
    21    13    14   ar
    22    14    15   ar
    23    15    16   ar
    24    16    17   ar
    25    15    18    1
    26    18    19    1
    27    19    20    1
    28    20    21    1
    29     4     5    1
    30     5     6    1
    31     5     7    1
    32    32    33   ar
    33    33    34   ar
    34    34    24   ar
    35    33    27   ar
    36     7     1    1
    37    17    12   ar
    38    21    14    1
    39     9    10    1
    40     6     8    1
@<TRIPOS>MOLECULE
*****
 36 40 0 0 0
SMALL
GASTEIGER

@<TRIPOS>ATOM
      1 N         142.8768  144.2046  162.9098 N.3     1  UNL1       -0.2689
      2 C         142.1475  144.9842  163.9635 C.3     1  UNL1        0.0737
      3 C         140.6895  145.2927  163.7938 C.3     1  UNL1        0.0356
      4 C         139.9607  144.8216  162.5703 C.3     1  UNL1        0.0843
      5 C         140.6900  144.0421  161.5165 C.3     1  UNL1        0.1407
      6 O         139.9612  143.5710  160.2930 O.3     1  UNL1       -0.3817
      7 C         142.1481  143.7336  161.6863 C.3     1  UNL1        0.1031
      8 H         139.0341  143.8525  160.3404 H       1  UNL1        0.2105
      9 N         138.5026  145.1301  162.4005 N.3     1  UNL1       -0.2915
     10 H         138.3188  145.1411  161.3972 H       1  UNL1        0.1236
     11 C         137.4697  144.2361  163.0201 C.3     1  UNL1        0.1153
     12 C         137.7208  142.7611  163.1259 C.ar    1  UNL1        0.0782
     13 C         137.9927  142.1407  164.4643 C.ar    1  UNL1        0.0562
     14 C         138.2437  140.6657  164.5701 C.ar    1  UNL1        0.1752
     15 C         138.2229  139.8110  163.3375 C.ar    1  UNL1        0.1914
     16 C         137.9510  140.4314  161.9992 C.ar    1  UNL1        0.1384
     17 N         137.6999  141.9065  161.8934 N.ar    1  UNL1       -0.2434
     18 O         138.4739  138.3359  163.4434 O.3     1  UNL1       -0.4668
     19 C         138.7458  137.7155  164.7817 C.3     1  UNL1        0.2527
     20 C         138.7667  138.5702  166.0142 C.3     1  UNL1        0.2526
     21 O         138.5157  140.0453  165.9085 O.3     1  UNL1       -0.4683
     22 C         144.3349  143.8961  163.0796 C.3     1  UNL1        0.0970
     23 C         144.7861  142.9917  164.1879 C.3     1  UNL1        0.1263
     24 C         142.6899  141.6388  167.9331 C.ar    1  UNL1        0.0699
     25 C         142.1508  140.2424  168.0280 C.ar    1  UNL1        0.0104
     26 C         142.3103  139.2968  166.8745 C.ar    1  UNL1        0.0021
     27 C         143.0090  139.7477  165.6262 C.ar    1  UNL1        0.0161
     28 C         143.1685  138.8022  164.4727 C.ar    1  UNL1        0.0063
     29 C         143.8672  139.2531  163.2243 C.ar    1  UNL1        0.0608
     30 C         144.4064  140.6496  163.1294 C.ar    1  UNL1        0.2610
     31 O         145.1051  141.1006  161.8810 O.2     1  UNL1       -0.2670
     32 N         144.2469  141.5952  164.2828 N.ar    1  UNL1       -0.2941
     33 C         143.5481  141.1442  165.5313 C.ar    1  UNL1        0.0631
     34 C         143.3886  142.0898  166.6847 C.ar    1  UNL1        0.0275
     35 N         142.3709  143.5300  170.2400 N.1     1  UNL1       -0.1908
     36 C         142.5304  142.5844  169.0865 C.1     1  UNL1        0.1005
@<TRIPOS>BOND
     1    35    36    3
     2    36    24    1
     3    24    25   ar
     4    25    26   ar
     5    26    27   ar
     6    27    28   ar
     7    28    29   ar
     8    29    30   ar
     9    30    31    2
    10    30    32   ar
    11    32    23    1
    12    23    22    1
    13    22     1    1
    14     1     2    1
    15     2     3    1
    16     3     4    1
    17     4     9    1
    18     9    11    1
    19    11    12    1
    20    12    13   ar
    21    13    14   ar
    22    14    15   ar
    23    15    16   ar
    24    16    17   ar
    25    15    18    1
    26    18    19    1
    27    19    20    1
    28    20    21    1
    29     4     5    1
    30     5     6    1
    31     5     7    1
    32    32    33   ar
    33    33    34   ar
    34    34    24   ar
    35    33    27   ar
    36     7     1    1
    37    17    12   ar
    38    21    14    1
    39     9    10    1
    40     6     8    1
@<TRIPOS>MOLECULE
*****
 36 40 0 0 0
SMALL
GASTEIGER

@<TRIPOS>ATOM
      1 N         143.0191  144.2219  162.4765 N.3     1  UNL1       -0.2689
      2 C         142.3823  145.1151  163.4995 C.3     1  UNL1        0.0737
      3 C         140.9107  145.3985  163.4357 C.3     1  UNL1        0.0356
      4 C         140.0759  144.7885  162.3490 C.3     1  UNL1        0.0843
      5 C         140.7128  143.8953  161.3259 C.3     1  UNL1        0.1407
      6 O         139.8779  143.2854  160.2391 O.3     1  UNL1       -0.3817
      7 C         142.1843  143.6120  161.3897 C.3     1  UNL1        0.1031
      8 H         138.9558  143.5681  160.3425 H       1  UNL1        0.2105
      9 N         138.6043  145.0719  162.2852 N.3     1  UNL1       -0.2915
     10 H         138.3278  144.9746  161.3082 H       1  UNL1        0.1236
     11 C         137.6459  144.2458  163.0908 C.3     1  UNL1        0.1153
     12 C         137.8256  142.7591  163.1765 C.ar    1  UNL1        0.0782
     13 C         138.0497  142.1063  164.5083 C.ar    1  UNL1        0.0562
     14 C         138.2294  140.6196  164.5940 C.ar    1  UNL1        0.1752
     15 C         138.1851  139.7856  163.3480 C.ar    1  UNL1        0.1914
     16 C         137.9610  140.4384  162.0162 C.ar    1  UNL1        0.1384
     17 N         137.7812  141.9252  161.9305 N.ar    1  UNL1       -0.2434
     18 O         138.3648  138.2989  163.4337 O.3     1  UNL1       -0.4668
     19 C         138.5889  137.6461  164.7655 C.3     1  UNL1        0.2527
     20 C         138.6332  138.4800  166.0115 C.3     1  UNL1        0.2526
     21 O         138.4535  139.9668  165.9258 O.3     1  UNL1       -0.4683
     22 C         144.4908  143.9385  162.5403 C.3     1  UNL1        0.0970
     23 C         144.9898  142.7226  163.2631 C.3     1  UNL1        0.1263
     24 C         142.8853  138.7751  162.7752 C.ar    1  UNL1        0.0699
     25 C         142.0939  138.2014  163.9130 C.ar    1  UNL1        0.0104
     26 C         142.0040  138.9436  165.2134 C.ar    1  UNL1        0.0021
     27 C         142.7054  140.2594  165.3761 C.ar    1  UNL1        0.0161
     28 C         142.6155  141.0016  166.6765 C.ar    1  UNL1        0.0063
     29 C         143.3170  142.3174  166.8391 C.ar    1  UNL1        0.0608
     30 C         144.1085  142.8911  165.7013 C.ar    1  UNL1        0.2610
     31 O         144.8099  144.2070  165.8639 O.2     1  UNL1       -0.2670
     32 N         144.1984  142.1490  164.4009 N.ar    1  UNL1       -0.2941
     33 C         143.4968  140.8331  164.2383 C.ar    1  UNL1        0.0631
     34 C         143.5867  140.0909  162.9379 C.ar    1  UNL1        0.0275
     35 N         143.0651  137.2907  160.1744 N.1     1  UNL1       -0.1908
     36 C         142.9752  138.0329  161.4748 C.1     1  UNL1        0.1005
@<TRIPOS>BOND
     1    35    36    3
     2    36    24    1
     3    24    25   ar
     4    25    26   ar
     5    26    27   ar
     6    27    28   ar
     7    28    29   ar
     8    29    30   ar
     9    30    31    2
    10    30    32   ar
    11    32    23    1
    12    23    22    1
    13    22     1    1
    14     1     2    1
    15     2     3    1
    16     3     4    1
    17     4     9    1
    18     9    11    1
    19    11    12    1
    20    12    13   ar
    21    13    14   ar
    22    14    15   ar
    23    15    16   ar
    24    16    17   ar
    25    15    18    1
    26    18    19    1
    27    19    20    1
    28    20    21    1
    29     4     5    1
    30     5     6    1
    31     5     7    1
    32    32    33   ar
    33    33    34   ar
    34    34    24   ar
    35    33    27   ar
    36     7     1    1
    37    17    12   ar
    38    21    14    1
    39     9    10    1
    40     6     8    1
@<TRIPOS>MOLECULE
*****
 36 40 0 0 0
SMALL
GASTEIGER

@<TRIPOS>ATOM
      1 N         138.9078  139.6614  161.2728 N.3     1  UNL1       -0.2689
      2 C         139.7994  140.2141  160.2007 C.3     1  UNL1        0.0737
      3 C         141.1714  139.6427  159.9977 C.3     1  UNL1        0.0356
      4 C         141.6517  138.5185  160.8669 C.3     1  UNL1        0.0843
      5 C         140.7600  137.9658  161.9390 C.3     1  UNL1        0.1407
      6 O         141.2403  136.8415  162.8082 O.3     1  UNL1       -0.3817
      7 C         139.3881  138.5372  162.1419 C.3     1  UNL1        0.1031
      8 H         142.1407  136.5926  162.5467 H       1  UNL1        0.2105
      9 N         143.0237  137.9471  160.6640 N.3     1  UNL1       -0.2915
     10 H         143.0468  137.5654  159.7183 H       1  UNL1        0.1236
     11 C         144.2308  138.8262  160.8058 C.3     1  UNL1        0.1153
     12 C         144.2638  139.8900  161.8626 C.ar    1  UNL1        0.0782
     13 C         144.0680  141.3285  161.4852 C.ar    1  UNL1        0.0562
     14 C         144.1011  142.3924  162.5421 C.ar    1  UNL1        0.1752
     15 C         144.3299  142.0178  163.9765 C.ar    1  UNL1        0.1914
     16 C         144.5257  140.5793  164.3539 C.ar    1  UNL1        0.1384
     17 N         144.4927  139.5154  163.2969 N.ar    1  UNL1       -0.2434
     18 O         144.3630  143.0817  165.0333 O.3     1  UNL1       -0.4668
     19 C         144.1672  144.5202  164.6559 C.3     1  UNL1        0.2527
     20 C         143.9383  144.8948  163.2216 C.3     1  UNL1        0.2526
     21 O         143.9053  143.8309  162.1647 O.3     1  UNL1       -0.4683
     22 C         137.5358  140.2329  161.4757 C.3     1  UNL1        0.0970
     23 C         137.3353  141.3880  162.4113 C.3     1  UNL1        0.1263
     24 C         138.4842  139.7057  166.4238 C.ar    1  UNL1        0.0699
     25 C         139.6527  140.2778  167.1702 C.ar    1  UNL1        0.0104
     26 C         140.4384  141.4107  166.5791 C.ar    1  UNL1        0.0021
     27 C         140.0554  141.9714  165.2416 C.ar    1  UNL1        0.0161
     28 C         140.8411  143.1043  164.6505 C.ar    1  UNL1        0.0063
     29 C         140.4581  143.6651  163.3131 C.ar    1  UNL1        0.0608
     30 C         139.2895  143.0930  162.5666 C.ar    1  UNL1        0.2610
     31 O         138.9066  143.6537  161.2292 O.2     1  UNL1       -0.2670
     32 N         138.5039  141.9601  163.1577 N.ar    1  UNL1       -0.2941
     33 C         138.8869  141.3993  164.4953 C.ar    1  UNL1        0.0631
     34 C         138.1013  140.2665  165.0864 C.ar    1  UNL1        0.0275
     35 N         136.9129  137.4400  167.6060 N.1     1  UNL1       -0.1908
     36 C         137.6986  138.5728  167.0149 C.1     1  UNL1        0.1005
@<TRIPOS>BOND
     1    35    36    3
     2    36    24    1
     3    24    25   ar
     4    25    26   ar
     5    26    27   ar
     6    27    28   ar
     7    28    29   ar
     8    29    30   ar
     9    30    31    2
    10    30    32   ar
    11    32    23    1
    12    23    22    1
    13    22     1    1
    14     1     2    1
    15     2     3    1
    16     3     4    1
    17     4     9    1
    18     9    11    1
    19    11    12    1
    20    12    13   ar
    21    13    14   ar
    22    14    15   ar
    23    15    16   ar
    24    16    17   ar
    25    15    18    1
    26    18    19    1
    27    19    20    1
    28    20    21    1
    29     4     5    1
    30     5     6    1
    31     5     7    1
    32    32    33   ar
    33    33    34   ar
    34    34    24   ar
    35    33    27   ar
    36     7     1    1
    37    17    12   ar
    38    21    14    1
    39     9    10    1
    40     6     8    1
@<TRIPOS>MOLECULE
*****
 36 40 0 0 0
SMALL
GASTEIGER

@<TRIPOS>ATOM
      1 N         138.1124  142.9661  162.1303 N.3     1  UNL1       -0.2689
      2 C         138.8857  143.1147  160.8536 C.3     1  UNL1        0.0737
      3 C         139.1725  141.9109  160.0060 C.3     1  UNL1        0.0356
      4 C         138.6859  140.5584  160.4350 C.3     1  UNL1        0.0843
      5 C         137.9127  140.4098  161.7117 C.3     1  UNL1        0.1407
      6 O         137.4261  139.0573  162.1408 O.3     1  UNL1       -0.3817
      7 C         137.6259  141.6137  162.5594 C.3     1  UNL1        0.1031
      8 H         137.6944  138.3943  161.4855 H       1  UNL1        0.2105
      9 N         138.9727  139.3545  159.5874 N.3     1  UNL1       -0.2915
     10 H         138.9511  139.6661  158.6164 H       1  UNL1        0.1236
     11 C         140.2540  138.5964  159.7705 C.3     1  UNL1        0.1153
     12 C         140.8311  138.4194  161.1436 C.ar    1  UNL1        0.0782
     13 C         142.1291  139.0800  161.5025 C.ar    1  UNL1        0.0562
     14 C         142.7062  138.9030  162.8756 C.ar    1  UNL1        0.1752
     15 C         141.9854  138.0654  163.8900 C.ar    1  UNL1        0.1914
     16 C         140.6874  137.4048  163.5311 C.ar    1  UNL1        0.1384
     17 N         140.1103  137.5818  162.1578 N.ar    1  UNL1       -0.2434
     18 O         142.5625  137.8884  165.2631 O.3     1  UNL1       -0.4668
     19 C         143.8605  138.5490  165.6220 C.3     1  UNL1        0.2527
     20 C         144.5813  139.3867  164.6078 C.3     1  UNL1        0.2526
     21 O         144.0042  139.5637  163.2345 O.3     1  UNL1       -0.4683
     22 C         137.8256  144.1700  162.9779 C.3     1  UNL1        0.0970
     23 C         138.6070  144.4043  164.2367 C.3     1  UNL1        0.1263
     24 C         140.7227  141.5852  167.0343 C.ar    1  UNL1        0.0699
     25 C         142.2197  141.4933  167.0159 C.ar    1  UNL1        0.0104
     26 C         143.0116  142.3411  166.0650 C.ar    1  UNL1        0.0021
     27 C         142.3063  143.2808  165.1325 C.ar    1  UNL1        0.0161
     28 C         143.0982  144.1286  164.1816 C.ar    1  UNL1        0.0063
     29 C         142.3930  145.0683  163.2491 C.ar    1  UNL1        0.0608
     30 C         140.8958  145.1602  163.2674 C.ar    1  UNL1        0.2610
     31 O         140.1906  146.0999  162.3349 O.2     1  UNL1       -0.2670
     32 N         140.1040  144.3124  164.2183 N.ar    1  UNL1       -0.2941
     33 C         140.8093  143.3727  165.1509 C.ar    1  UNL1        0.0631
     34 C         140.0175  142.5249  166.1018 C.ar    1  UNL1        0.0275
     35 N         139.1391  139.8895  168.9361 N.1     1  UNL1       -0.1908
     36 C         139.9309  140.7374  167.9852 C.1     1  UNL1        0.1005
@<TRIPOS>BOND
     1    35    36    3
     2    36    24    1
     3    24    25   ar
     4    25    26   ar
     5    26    27   ar
     6    27    28   ar
     7    28    29   ar
     8    29    30   ar
     9    30    31    2
    10    30    32   ar
    11    32    23    1
    12    23    22    1
    13    22     1    1
    14     1     2    1
    15     2     3    1
    16     3     4    1
    17     4     9    1
    18     9    11    1
    19    11    12    1
    20    12    13   ar
    21    13    14   ar
    22    14    15   ar
    23    15    16   ar
    24    16    17   ar
    25    15    18    1
    26    18    19    1
    27    19    20    1
    28    20    21    1
    29     4     5    1
    30     5     6    1
    31     5     7    1
    32    32    33   ar
    33    33    34   ar
    34    34    24   ar
    35    33    27   ar
    36     7     1    1
    37    17    12   ar
    38    21    14    1
    39     9    10    1
    40     6     8    1
@<TRIPOS>MOLECULE
*****
 36 40 0 0 0
SMALL
GASTEIGER

@<TRIPOS>ATOM
      1 N         141.7834  138.1416  164.1539 N.3     1  UNL1       -0.2689
      2 C         142.3905  138.7688  165.3738 C.3     1  UNL1        0.0737
      3 C         143.6904  139.5097  165.2681 C.3     1  UNL1        0.0356
      4 C         144.3832  139.6235  163.9425 C.3     1  UNL1        0.0843
      5 C         143.7760  138.9963  162.7227 C.3     1  UNL1        0.1407
      6 O         144.4688  139.1101  161.3971 O.3     1  UNL1       -0.3817
      7 C         142.4761  138.2554  162.8284 C.3     1  UNL1        0.1031
      8 H         145.2894  139.6162  161.5035 H       1  UNL1        0.2105
      9 N         145.6831  140.3645  163.8368 N.3     1  UNL1       -0.2915
     10 H         146.1808  139.9733  163.0370 H       1  UNL1        0.1236
     11 C         145.6851  141.8542  163.6616 C.3     1  UNL1        0.1153
     12 C         144.6520  142.5087  162.7932 C.ar    1  UNL1        0.0782
     13 C         143.6641  143.4646  163.3934 C.ar    1  UNL1        0.0562
     14 C         142.6310  144.1191  162.5250 C.ar    1  UNL1        0.1752
     15 C         142.5856  143.8176  161.0562 C.ar    1  UNL1        0.1914
     16 C         143.5735  142.8616  160.4560 C.ar    1  UNL1        0.1384
     17 N         144.6067  142.2072  161.3245 N.ar    1  UNL1       -0.2434
     18 O         141.5525  144.4721  160.1878 O.3     1  UNL1       -0.4668
     19 C         140.5646  145.4280  160.7880 C.3     1  UNL1        0.2527
     20 C         140.6099  145.7295  162.2567 C.3     1  UNL1        0.2526
     21 O         141.6431  145.0750  163.1252 O.3     1  UNL1       -0.4683
     22 C         140.4834  137.4006  164.2597 C.3     1  UNL1        0.0970
     23 C         139.2351  138.1295  164.6604 C.3     1  UNL1        0.1263
     24 C         139.9560  142.2547  166.3076 C.ar    1  UNL1        0.0699
     25 C         139.5100  143.4597  165.5338 C.ar    1  UNL1        0.0104
     26 C         138.8237  143.2897  164.2108 C.ar    1  UNL1        0.0021
     27 C         138.5834  141.9147  163.6618 C.ar    1  UNL1        0.0161
     28 C         137.8971  141.7447  162.3388 C.ar    1  UNL1        0.0063
     29 C         137.6568  140.3697  161.7898 C.ar    1  UNL1        0.0608
     30 C         138.1028  139.1646  162.5636 C.ar    1  UNL1        0.2610
     31 O         137.8626  137.7896  162.0146 O.2     1  UNL1       -0.2670
     32 N         138.7891  139.3346  163.8866 N.ar    1  UNL1       -0.2941
     33 C         139.0294  140.7097  164.4356 C.ar    1  UNL1        0.0631
     34 C         139.7157  140.8797  165.7585 C.ar    1  UNL1        0.0275
     35 N         141.3286  142.5946  168.9534 N.1     1  UNL1       -0.1908
     36 C         140.6423  142.4247  167.6305 C.1     1  UNL1        0.1005
@<TRIPOS>BOND
     1    35    36    3
     2    36    24    1
     3    24    25   ar
     4    25    26   ar
     5    26    27   ar
     6    27    28   ar
     7    28    29   ar
     8    29    30   ar
     9    30    31    2
    10    30    32   ar
    11    32    23    1
    12    23    22    1
    13    22     1    1
    14     1     2    1
    15     2     3    1
    16     3     4    1
    17     4     9    1
    18     9    11    1
    19    11    12    1
    20    12    13   ar
    21    13    14   ar
    22    14    15   ar
    23    15    16   ar
    24    16    17   ar
    25    15    18    1
    26    18    19    1
    27    19    20    1
    28    20    21    1
    29     4     5    1
    30     5     6    1
    31     5     7    1
    32    32    33   ar
    33    33    34   ar
    34    34    24   ar
    35    33    27   ar
    36     7     1    1
    37    17    12   ar
    38    21    14    1
    39     9    10    1
    40     6     8    1
@<TRIPOS>MOLECULE
*****
 36 40 0 0 0
SMALL
GASTEIGER

@<TRIPOS>ATOM
      1 N         144.4876  140.1655  163.3405 N.3     1  UNL1       -0.2689
      2 C         144.1065  140.0155  161.8975 C.3     1  UNL1        0.0737
      3 C         143.0189  139.0603  161.5043 C.3     1  UNL1        0.0356
      4 C         142.3123  138.2551  162.5542 C.3     1  UNL1        0.0843
      5 C         142.6934  138.4050  163.9972 C.3     1  UNL1        0.1407
      6 O         141.9868  137.5997  165.0471 O.3     1  UNL1       -0.3817
      7 C         143.7810  139.3602  164.3904 C.3     1  UNL1        0.1031
      8 H         141.3175  137.0371  164.6271 H       1  UNL1        0.2105
      9 N         141.2246  137.2998  162.1611 N.3     1  UNL1       -0.2915
     10 H         141.3641  136.4523  162.7112 H       1  UNL1        0.1236
     11 C         139.7862  137.6918  162.3267 C.3     1  UNL1        0.1153
     12 C         139.3822  139.1311  162.2039 C.ar    1  UNL1        0.0782
     13 C         138.8412  139.8626  163.3965 C.ar    1  UNL1        0.0562
     14 C         138.4371  141.3019  163.2737 C.ar    1  UNL1        0.1752
     15 C         138.5740  142.0097  161.9583 C.ar    1  UNL1        0.1914
     16 C         139.1150  141.2782  160.7657 C.ar    1  UNL1        0.1384
     17 N         139.5190  139.8388  160.8886 N.ar    1  UNL1       -0.2434
     18 O         138.1699  143.4490  161.8355 O.3     1  UNL1       -0.4668
     19 C         137.6290  144.1805  163.0280 C.3     1  UNL1        0.2527
     20 C         137.4921  143.4727  164.3434 C.3     1  UNL1        0.2526
     21 O         137.8962  142.0334  164.4663 O.3     1  UNL1       -0.4683
     22 C         145.5753  141.1207  163.7336 C.3     1  UNL1        0.0970
     23 C         145.2264  142.4352  164.3665 C.3     1  UNL1        0.1263
     24 C         142.3326  141.7859  167.7509 C.ar    1  UNL1        0.0699
     25 C         140.9333  142.3173  167.6535 C.ar    1  UNL1        0.0104
     26 C         140.4986  143.0652  166.4281 C.ar    1  UNL1        0.0021
     27 C         141.4632  143.2816  165.3000 C.ar    1  UNL1        0.0161
     28 C         141.0285  144.0294  164.0745 C.ar    1  UNL1        0.0063
     29 C         141.9930  144.2458  162.9464 C.ar    1  UNL1        0.0608
     30 C         143.3924  143.7144  163.0437 C.ar    1  UNL1        0.2610
     31 O         144.3570  143.9308  161.9156 O.2     1  UNL1       -0.2670
     32 N         143.8271  142.9666  164.2692 N.ar    1  UNL1       -0.2941
     33 C         142.8625  142.7502  165.3973 C.ar    1  UNL1        0.0631
     34 C         143.2972  142.0023  166.6228 C.ar    1  UNL1        0.0275
     35 N         143.2020  140.2903  170.2018 N.1     1  UNL1       -0.1908
     36 C         142.7673  141.0381  168.9764 C.1     1  UNL1        0.1005
@<TRIPOS>BOND
     1    35    36    3
     2    36    24    1
     3    24    25   ar
     4    25    26   ar
     5    26    27   ar
     6    27    28   ar
     7    28    29   ar
     8    29    30   ar
     9    30    31    2
    10    30    32   ar
    11    32    23    1
    12    23    22    1
    13    22     1    1
    14     1     2    1
    15     2     3    1
    16     3     4    1
    17     4     9    1
    18     9    11    1
    19    11    12    1
    20    12    13   ar
    21    13    14   ar
    22    14    15   ar
    23    15    16   ar
    24    16    17   ar
    25    15    18    1
    26    18    19    1
    27    19    20    1
    28    20    21    1
    29     4     5    1
    30     5     6    1
    31     5     7    1
    32    32    33   ar
    33    33    34   ar
    34    34    24   ar
    35    33    27   ar
    36     7     1    1
    37    17    12   ar
    38    21    14    1
    39     9    10    1
    40     6     8    1
