@<TRIPOS>MOLECULE
*****
 39 45 0 0 0
SMALL
GASTEIGER

@<TRIPOS>ATOM
      1 C         138.4371  141.8178  164.4040 C.3     1  UNL1        0.0955
      2 C         138.0098  141.8586  162.9666 C.3     1  UNL1        0.0287
      3 C         137.9697  143.1663  162.2329 C.3     1  UNL1        0.0193
      4 C         138.3567  144.4332  162.9365 C.3     1  UNL1        0.0700
      5 C         138.7840  144.3924  164.3738 C.3     1  UNL1        0.0193
      6 C         138.8241  143.0847  165.1076 C.3     1  UNL1        0.0287
      7 C         138.3946  143.7405  163.3802 C.3     1  UNL1        0.1562
      8 O         138.4309  142.5581  164.0436 O.3     1  UNL1       -0.3571
      9 N         138.3166  145.7409  162.2029 N.3     1  UNL1       -0.2938
     10 H         137.9552  146.4348  162.8574 H       1  UNL1        0.1235
     11 C         139.5743  146.3114  161.6177 C.3     1  UNL1        0.0966
     12 C         140.5080  145.4297  160.8424 C.ar    1  UNL1        0.0074
     13 C         140.2688  145.1847  159.3820 C.ar    1  UNL1        0.0012
     14 C         141.2024  144.3030  158.6067 C.ar    1  UNL1        0.0398
     15 C         142.3752  143.6664  159.2918 C.ar    1  UNL1        0.1732
     16 C         142.6143  143.9115  160.7521 C.ar    1  UNL1        0.1825
     17 C         141.6808  144.7931  161.5275 C.ar    1  UNL1        0.0919
     18 CL        141.9200  145.0382  162.9878 Cl      1  UNL1       -0.0793
     19 O         143.7871  143.2749  161.4373 O.3     1  UNL1       -0.4675
     20 C         144.7207  142.3933  160.6620 C.3     1  UNL1        0.2527
     21 C         144.4815  142.1482  159.2016 C.3     1  UNL1        0.2526
     22 O         143.3087  142.7848  158.5164 O.3     1  UNL1       -0.4683
     23 C         138.4773  140.5101  165.1377 C.3     1  UNL1        0.0604
     24 O         138.8703  140.8155  170.2401 O.2     1  UNL1       -0.2670
     25 C         140.0921  140.2325  169.5940 C.ar    1  UNL1        0.2611
     26 C         141.2584  139.8115  170.4381 C.ar    1  UNL1        0.0623
     27 C         142.4801  139.2285  169.7920 C.ar    1  UNL1        0.0254
     28 C         142.5355  139.0664  168.3018 C.ar    1  UNL1        0.0972
     29 N         143.6108  138.5221  167.3974 N.ar    1  UNL1       -0.2400
     30 C         143.5218  138.4215  165.9034 C.ar    1  UNL1        0.1282
     31 C         142.2848  138.8852  165.1929 C.ar    1  UNL1        0.1588
     32 F         142.1958  138.7846  163.6990 F       1  UNL1       -0.2027
     33 C         141.1368  139.4494  165.9764 C.ar    1  UNL1        0.0500
     34 C         141.3692  139.4874  167.4578 C.ar    1  UNL1        0.0806
     35 N         140.1475  140.0704  168.1038 N.ar    1  UNL1       -0.2915
     36 C         139.1600  140.3927  167.0217 C.3     1  UNL1        0.1402
     37 C         139.7714  140.0089  165.7069 C.3     1  UNL1        0.1335
     38 O         140.1123  139.7298  164.2730 O.3     1  UNL1       -0.3806
     39 H         139.3706  139.9948  163.7069 H       1  UNL1        0.2108
@<TRIPOS>BOND
     1    24    25    2
     2    25    26   ar
     3    26    27   ar
     4    27    28   ar
     5    28    29   ar
     6    29    30   ar
     7    30    31   ar
     8    31    32    1
     9    31    33   ar
    10    33    34   ar
    11    34    35   ar
    12    35    36    1
    13    36    37    1
    14    37    38    1
    15    37    23    1
    16    23     1    1
    17     1     2    1
    18     2     3    1
    19     3     4    1
    20     4     9    1
    21     9    11    1
    22    11    12    1
    23    12    13   ar
    24    13    14   ar
    25    14    15   ar
    26    15    16   ar
    27    16    17   ar
    28    17    18    1
    29    16    19    1
    30    19    20    1
    31    20    21    1
    32    21    22    1
    33     4     5    1
    34     5     6    1
    35     4     7    1
    36     7     8    1
    37    35    25   ar
    38     6     1    1
    39    34    28   ar
    40     8     1    1
    41    37    33    1
    42    17    12   ar
    43    22    15    1
    44    38    39    1
    45     9    10    1
@<TRIPOS>MOLECULE
*****
 39 45 0 0 0
SMALL
GASTEIGER

@<TRIPOS>ATOM
      1 C         138.2351  141.6407  164.7147 C.3     1  UNL1        0.0955
      2 C         139.1023  142.5748  165.5058 C.3     1  UNL1        0.0287
      3 C         139.9542  142.0441  166.6206 C.3     1  UNL1        0.0193
      4 C         139.9390  140.5795  166.9443 C.3     1  UNL1        0.0700
      5 C         139.0719  139.6456  166.1532 C.3     1  UNL1        0.0193
      6 C         138.2199  140.1762  165.0383 C.3     1  UNL1        0.0287
      7 C         139.4550  140.8237  166.3243 C.3     1  UNL1        0.1562
      8 O         138.6848  141.3035  165.3164 O.3     1  UNL1       -0.3571
      9 N         140.7909  140.0489  168.0590 N.3     1  UNL1       -0.2938
     10 H         140.3333  139.2047  168.4031 H       1  UNL1        0.1235
     11 C         142.2244  139.6903  167.8019 C.3     1  UNL1        0.0966
     12 C         142.7971  139.8314  166.4226 C.ar    1  UNL1        0.0074
     13 C         142.8484  138.6444  165.5069 C.ar    1  UNL1        0.0012
     14 C         143.4210  138.7854  164.1277 C.ar    1  UNL1        0.0398
     15 C         143.9423  140.1134  163.6642 C.ar    1  UNL1        0.1732
     16 C         143.8909  141.3003  164.5799 C.ar    1  UNL1        0.1825
     17 C         143.3183  141.1593  165.9591 C.ar    1  UNL1        0.0919
     18 CL        143.2670  142.3463  166.8748 Cl      1  UNL1       -0.0793
     19 O         144.4121  142.6283  164.1164 O.3     1  UNL1       -0.4675
     20 C         144.9847  142.7692  162.7372 C.3     1  UNL1        0.2527
     21 C         145.0361  141.5824  161.8215 C.3     1  UNL1        0.2526
     22 O         144.5149  140.2544  162.2849 O.3     1  UNL1       -0.4683
     23 C         137.3833  142.1714  163.5999 C.3     1  UNL1        0.0604
     24 O         140.2876  146.1275  162.1178 O.2     1  UNL1       -0.2670
     25 C         140.0894  145.1100  161.0337 C.ar    1  UNL1        0.2611
     26 C         140.7166  145.3170  159.6870 C.ar    1  UNL1        0.0623
     27 C         140.5184  144.2994  158.6029 C.ar    1  UNL1        0.0254
     28 C         139.6929  143.0749  158.8654 C.ar    1  UNL1        0.0972
     29 N         139.3308  141.9085  157.9830 N.ar    1  UNL1       -0.2400
     30 C         138.4839  140.7396  158.3908 C.ar    1  UNL1        0.1282
     31 C         137.9218  140.6690  159.7797 C.ar    1  UNL1        0.1588
     32 F         137.0749  139.5001  160.1875 F       1  UNL1       -0.2027
     33 C         138.2066  141.7674  160.7608 C.ar    1  UNL1        0.0500
     34 C         139.0656  142.8679  160.2121 C.ar    1  UNL1        0.0806
     35 N         139.2639  143.8854  161.2963 N.ar    1  UNL1       -0.2915
     36 C         138.5274  143.4137  162.5149 C.3     1  UNL1        0.1402
     37 C         137.8740  142.1047  162.1840 C.3     1  UNL1        0.1335
     38 O         137.1180  140.8096  162.1490 O.3     1  UNL1       -0.3806
     39 H         136.7026  140.6543  163.0117 H       1  UNL1        0.2108
@<TRIPOS>BOND
     1    24    25    2
     2    25    26   ar
     3    26    27   ar
     4    27    28   ar
     5    28    29   ar
     6    29    30   ar
     7    30    31   ar
     8    31    32    1
     9    31    33   ar
    10    33    34   ar
    11    34    35   ar
    12    35    36    1
    13    36    37    1
    14    37    38    1
    15    37    23    1
    16    23     1    1
    17     1     2    1
    18     2     3    1
    19     3     4    1
    20     4     9    1
    21     9    11    1
    22    11    12    1
    23    12    13   ar
    24    13    14   ar
    25    14    15   ar
    26    15    16   ar
    27    16    17   ar
    28    17    18    1
    29    16    19    1
    30    19    20    1
    31    20    21    1
    32    21    22    1
    33     4     5    1
    34     5     6    1
    35     4     7    1
    36     7     8    1
    37    35    25   ar
    38     6     1    1
    39    34    28   ar
    40     8     1    1
    41    37    33    1
    42    17    12   ar
    43    22    15    1
    44    38    39    1
    45     9    10    1
@<TRIPOS>MOLECULE
*****
 39 45 0 0 0
SMALL
GASTEIGER

@<TRIPOS>ATOM
      1 C         139.9985  142.8188  164.9137 C.3     1  UNL1        0.0955
      2 C         138.6942  142.3028  164.3819 C.3     1  UNL1        0.0287
      3 C         138.1822  140.9634  164.8219 C.3     1  UNL1        0.0193
      4 C         138.9743  140.1399  165.7936 C.3     1  UNL1        0.0700
      5 C         140.2785  140.6558  166.3254 C.3     1  UNL1        0.0193
      6 C         140.7907  141.9953  165.8854 C.3     1  UNL1        0.0287
      7 C         139.2957  140.8679  165.5817 C.3     1  UNL1        0.1562
      8 O         139.7586  142.0790  165.1839 O.3     1  UNL1       -0.3571
      9 N         138.4623  138.8004  166.2336 N.3     1  UNL1       -0.2938
     10 H         137.4466  138.8767  166.2877 H       1  UNL1        0.1235
     11 C         138.7619  137.5780  165.4175 C.3     1  UNL1        0.0966
     12 C         139.4070  137.7152  164.0703 C.ar    1  UNL1        0.0074
     13 C         138.5567  137.8442  162.8413 C.ar    1  UNL1        0.0012
     14 C         139.2016  137.9814  161.4940 C.ar    1  UNL1        0.0398
     15 C         140.6969  137.9897  161.3757 C.ar    1  UNL1        0.1732
     16 C         141.5472  137.8607  162.6047 C.ar    1  UNL1        0.1825
     17 C         140.9022  137.7235  163.9519 C.ar    1  UNL1        0.0919
     18 CL        141.7525  137.5945  165.1809 Cl      1  UNL1       -0.0793
     19 O         143.0425  137.8689  162.4864 O.3     1  UNL1       -0.4675
     20 C         143.6875  138.0061  161.1391 C.3     1  UNL1        0.2527
     21 C         142.8373  138.1351  159.9102 C.3     1  UNL1        0.2526
     22 O         141.3419  138.1269  160.0284 O.3     1  UNL1       -0.4683
     23 C         140.5105  144.1583  164.4737 C.3     1  UNL1        0.0604
     24 O         144.1945  141.2035  162.4787 O.2     1  UNL1       -0.2670
     25 C         143.6157  142.1664  161.4848 C.ar    1  UNL1        0.2611
     26 C         144.1279  142.1875  160.0751 C.ar    1  UNL1        0.0623
     27 C         143.5491  143.1503  159.0812 C.ar    1  UNL1        0.0254
     28 C         142.4582  144.0921  159.4969 C.ar    1  UNL1        0.0972
     29 N         141.7041  145.1460  158.7281 N.ar    1  UNL1       -0.2400
     30 C         140.6231  146.0232  159.2866 C.ar    1  UNL1        0.1282
     31 C         140.2145  145.8873  160.7234 C.ar    1  UNL1        0.1588
     32 F         139.1336  146.7645  161.2820 F       1  UNL1       -0.2027
     33 C         140.8869  144.8741  161.6018 C.ar    1  UNL1        0.0500
     34 C         141.9460  144.0710  160.9066 C.ar    1  UNL1        0.0806
     35 N         142.5248  143.1081  161.9005 N.ar    1  UNL1       -0.2915
     36 C         141.8234  143.3162  163.2100 C.3     1  UNL1        0.1402
     37 C         140.8111  144.4076  163.0254 C.3     1  UNL1        0.1335
     38 O         139.7360  145.4469  163.1435 O.3     1  UNL1       -0.3806
     39 H         139.3889  145.4515  164.0493 H       1  UNL1        0.2108
@<TRIPOS>BOND
     1    24    25    2
     2    25    26   ar
     3    26    27   ar
     4    27    28   ar
     5    28    29   ar
     6    29    30   ar
     7    30    31   ar
     8    31    32    1
     9    31    33   ar
    10    33    34   ar
    11    34    35   ar
    12    35    36    1
    13    36    37    1
    14    37    38    1
    15    37    23    1
    16    23     1    1
    17     1     2    1
    18     2     3    1
    19     3     4    1
    20     4     9    1
    21     9    11    1
    22    11    12    1
    23    12    13   ar
    24    13    14   ar
    25    14    15   ar
    26    15    16   ar
    27    16    17   ar
    28    17    18    1
    29    16    19    1
    30    19    20    1
    31    20    21    1
    32    21    22    1
    33     4     5    1
    34     5     6    1
    35     4     7    1
    36     7     8    1
    37    35    25   ar
    38     6     1    1
    39    34    28   ar
    40     8     1    1
    41    37    33    1
    42    17    12   ar
    43    22    15    1
    44    38    39    1
    45     9    10    1
@<TRIPOS>MOLECULE
*****
 39 45 0 0 0
SMALL
GASTEIGER

@<TRIPOS>ATOM
      1 C         137.8583  140.8392  161.7058 C.3     1  UNL1        0.0955
      2 C         137.5870  140.6553  163.1696 C.3     1  UNL1        0.0287
      3 C         137.5537  141.8458  164.0816 C.3     1  UNL1        0.0193
      4 C         137.7917  143.2202  163.5297 C.3     1  UNL1        0.0700
      5 C         138.0629  143.4040  162.0660 C.3     1  UNL1        0.0193
      6 C         138.0963  142.2135  161.1540 C.3     1  UNL1        0.0287
      7 C         137.8198  142.5981  162.9909 C.3     1  UNL1        0.1562
      8 O         137.8500  141.5217  162.1663 O.3     1  UNL1       -0.3571
      9 N         137.7583  144.4107  164.4417 N.3     1  UNL1       -0.2938
     10 H         137.0598  144.2132  165.1583 H       1  UNL1        0.1235
     11 C         139.0037  144.8416  165.1580 C.3     1  UNL1        0.0966
     12 C         140.3497  144.4500  164.6242 C.ar    1  UNL1        0.0074
     13 C         141.0028  145.2771  163.5569 C.ar    1  UNL1        0.0012
     14 C         142.3488  144.8855  163.0229 C.ar    1  UNL1        0.0398
     15 C         143.0416  143.6667  163.5563 C.ar    1  UNL1        0.1732
     16 C         142.3885  142.8395  164.6236 C.ar    1  UNL1        0.1825
     17 C         141.0425  143.2312  165.1575 C.ar    1  UNL1        0.0919
     18 CL        140.3894  142.4040  166.2248 Cl      1  UNL1       -0.0793
     19 O         143.0812  141.6207  165.1570 O.3     1  UNL1       -0.4675
     20 C         144.4272  141.2291  164.6231 C.3     1  UNL1        0.2527
     21 C         145.0803  142.0563  163.5559 C.3     1  UNL1        0.2526
     22 O         144.3876  143.2751  163.0224 O.3     1  UNL1       -0.4683
     23 C         137.8917  139.6487  160.7939 C.3     1  UNL1        0.0604
     24 O         141.7445  138.6934  164.0381 O.2     1  UNL1       -0.2670
     25 C         142.1300  138.5025  162.6011 C.ar    1  UNL1        0.2611
     26 C         143.5238  138.0744  162.2490 C.ar    1  UNL1        0.0623
     27 C         143.9093  137.8835  160.8120 C.ar    1  UNL1        0.0254
     28 C         142.9010  138.1207  159.7272 C.ar    1  UNL1        0.0972
     29 N         143.0044  138.0093  158.2281 N.ar    1  UNL1       -0.2400
     30 C         141.8943  138.2826  157.2571 C.ar    1  UNL1        0.1282
     31 C         140.5457  138.7056  157.7595 C.ar    1  UNL1        0.1588
     32 F         139.4355  138.9789  156.7885 F       1  UNL1       -0.2027
     33 C         140.3073  138.8552  159.2329 C.ar    1  UNL1        0.0500
     34 C         141.5072  138.5489  160.0793 C.ar    1  UNL1        0.0806
     35 N         141.1217  138.7397  161.5163 N.ar    1  UNL1       -0.2915
     36 C         139.6836  139.1641  161.5579 C.3     1  UNL1        0.1402
     37 C         139.1802  139.2355  160.1467 C.3     1  UNL1        0.1335
     38 O         138.4075  139.3932  158.8708 O.3     1  UNL1       -0.3806
     39 H         137.5005  139.6704  159.0742 H       1  UNL1        0.2108
@<TRIPOS>BOND
     1    24    25    2
     2    25    26   ar
     3    26    27   ar
     4    27    28   ar
     5    28    29   ar
     6    29    30   ar
     7    30    31   ar
     8    31    32    1
     9    31    33   ar
    10    33    34   ar
    11    34    35   ar
    12    35    36    1
    13    36    37    1
    14    37    38    1
    15    37    23    1
    16    23     1    1
    17     1     2    1
    18     2     3    1
    19     3     4    1
    20     4     9    1
    21     9    11    1
    22    11    12    1
    23    12    13   ar
    24    13    14   ar
    25    14    15   ar
    26    15    16   ar
    27    16    17   ar
    28    17    18    1
    29    16    19    1
    30    19    20    1
    31    20    21    1
    32    21    22    1
    33     4     5    1
    34     5     6    1
    35     4     7    1
    36     7     8    1
    37    35    25   ar
    38     6     1    1
    39    34    28   ar
    40     8     1    1
    41    37    33    1
    42    17    12   ar
    43    22    15    1
    44    38    39    1
    45     9    10    1
@<TRIPOS>MOLECULE
*****
 39 45 0 0 0
SMALL
GASTEIGER

@<TRIPOS>ATOM
      1 C         137.9174  140.6357  162.0834 C.3     1  UNL1        0.0955
      2 C         137.9667  142.0062  161.4754 C.3     1  UNL1        0.0287
      3 C         137.9305  143.2194  162.3567 C.3     1  UNL1        0.0193
      4 C         137.8449  143.0623  163.8460 C.3     1  UNL1        0.0700
      5 C         137.7955  141.6919  164.4540 C.3     1  UNL1        0.0193
      6 C         137.8318  140.4786  163.5727 C.3     1  UNL1        0.0287
      7 C         137.8621  142.3678  163.4038 C.3     1  UNL1        0.1562
      8 O         137.8949  141.2708  162.6070 O.3     1  UNL1       -0.3571
      9 N         137.8086  144.2756  164.7273 N.3     1  UNL1       -0.2938
     10 H         137.2239  144.0397  165.5291 H       1  UNL1        0.1235
     11 C         139.0846  144.8436  165.2741 C.3     1  UNL1        0.0966
     12 C         140.3981  144.4726  164.6519 C.ar    1  UNL1        0.0074
     13 C         140.9178  145.2487  163.4782 C.ar    1  UNL1        0.0012
     14 C         142.2312  144.8777  162.8559 C.ar    1  UNL1        0.0398
     15 C         143.0250  143.7306  163.4074 C.ar    1  UNL1        0.1732
     16 C         142.5054  142.9546  164.5811 C.ar    1  UNL1        0.1825
     17 C         141.1919  143.3255  165.2034 C.ar    1  UNL1        0.0919
     18 CL        140.6722  142.5494  166.3771 Cl      1  UNL1       -0.0793
     19 O         143.2991  141.8075  165.1326 O.3     1  UNL1       -0.4675
     20 C         144.6125  141.4365  164.5103 C.3     1  UNL1        0.2527
     21 C         145.1322  142.2125  163.3367 C.3     1  UNL1        0.2526
     22 O         144.3385  143.3597  162.7851 O.3     1  UNL1       -0.4683
     23 C         137.9537  139.4225  161.2021 C.3     1  UNL1        0.0604
     24 O         138.0594  139.7288  156.0857 O.2     1  UNL1       -0.2670
     25 C         139.3456  139.2213  156.6672 C.ar    1  UNL1        0.2611
     26 C         140.4888  138.8661  155.7633 C.ar    1  UNL1        0.0623
     27 C         141.7750  138.3586  156.3448 C.ar    1  UNL1        0.0254
     28 C         141.9181  138.2064  157.8301 C.ar    1  UNL1        0.0972
     29 N         143.0696  137.7300  158.6772 N.ar    1  UNL1       -0.2400
     30 C         143.0653  137.6307  160.1739 C.ar    1  UNL1        0.1282
     31 C         141.8421  138.0239  160.9481 C.ar    1  UNL1        0.1588
     32 F         141.8378  137.9245  162.4448 F       1  UNL1       -0.2027
     33 C         140.6233  138.5163  160.2256 C.ar    1  UNL1        0.0500
     34 C         140.7750  138.5616  158.7340 C.ar    1  UNL1        0.0806
     35 N         139.4888  139.0691  158.1525 N.ar    1  UNL1       -0.2915
     36 C         138.5422  139.3374  159.2848 C.3     1  UNL1        0.1402
     37 C         139.2434  138.9958  160.5661 C.3     1  UNL1        0.1335
     38 O         139.6750  138.7433  161.9803 O.3     1  UNL1       -0.3806
     39 H         138.9497  138.9667  162.5844 H       1  UNL1        0.2108
@<TRIPOS>BOND
     1    24    25    2
     2    25    26   ar
     3    26    27   ar
     4    27    28   ar
     5    28    29   ar
     6    29    30   ar
     7    30    31   ar
     8    31    32    1
     9    31    33   ar
    10    33    34   ar
    11    34    35   ar
    12    35    36    1
    13    36    37    1
    14    37    38    1
    15    37    23    1
    16    23     1    1
    17     1     2    1
    18     2     3    1
    19     3     4    1
    20     4     9    1
    21     9    11    1
    22    11    12    1
    23    12    13   ar
    24    13    14   ar
    25    14    15   ar
    26    15    16   ar
    27    16    17   ar
    28    17    18    1
    29    16    19    1
    30    19    20    1
    31    20    21    1
    32    21    22    1
    33     4     5    1
    34     5     6    1
    35     4     7    1
    36     7     8    1
    37    35    25   ar
    38     6     1    1
    39    34    28   ar
    40     8     1    1
    41    37    33    1
    42    17    12   ar
    43    22    15    1
    44    38    39    1
    45     9    10    1
@<TRIPOS>MOLECULE
*****
 39 45 0 0 0
SMALL
GASTEIGER

@<TRIPOS>ATOM
      1 C         138.7469  138.9828  164.1682 C.3     1  UNL1        0.0955
      2 C         138.8710  137.9190  163.1179 C.3     1  UNL1        0.0287
      3 C         138.3542  138.1692  161.7322 C.3     1  UNL1        0.0193
      4 C         137.7132  139.4831  161.3966 C.3     1  UNL1        0.0700
      5 C         137.5891  140.5469  162.4468 C.3     1  UNL1        0.0193
      6 C         138.1059  140.2968  163.8326 C.3     1  UNL1        0.0287
      7 C         137.9816  139.3923  162.1698 C.3     1  UNL1        0.1562
      8 O         138.4489  139.1661  163.4228 O.3     1  UNL1       -0.3571
      9 N         137.1964  139.7333  160.0109 N.3     1  UNL1       -0.2938
     10 H         136.3489  140.2923  160.1091 H       1  UNL1        0.1235
     11 C         138.0607  140.4308  159.0027 C.3     1  UNL1        0.0966
     12 C         139.2186  141.2682  159.4588 C.ar    1  UNL1        0.0074
     13 C         139.0247  142.7299  159.7341 C.ar    1  UNL1        0.0012
     14 C         140.1825  143.5673  160.1902 C.ar    1  UNL1        0.0398
     15 C         141.5344  142.9430  160.3711 C.ar    1  UNL1        0.1732
     16 C         141.7284  141.4813  160.0959 C.ar    1  UNL1        0.1825
     17 C         140.5705  140.6439  159.6398 C.ar    1  UNL1        0.0919
     18 CL        140.7645  139.1822  159.3646 Cl      1  UNL1       -0.0793
     19 O         143.0802  140.8570  160.2768 O.3     1  UNL1       -0.4675
     20 C         144.2380  141.6944  160.7329 C.3     1  UNL1        0.2527
     21 C         144.0441  143.1561  161.0082 C.3     1  UNL1        0.2526
     22 O         142.6923  143.7805  160.8273 O.3     1  UNL1       -0.4683
     23 C         139.2637  138.7326  165.5539 C.3     1  UNL1        0.0604
     24 O         138.0905  140.0826  170.3584 O.2     1  UNL1       -0.2670
     25 C         139.3339  140.7508  169.8511 C.ar    1  UNL1        0.2611
     26 C         140.0881  141.7009  170.7333 C.ar    1  UNL1        0.0623
     27 C         141.3315  142.3691  170.2260 C.ar    1  UNL1        0.0254
     28 C         141.8207  142.0872  168.8364 C.ar    1  UNL1        0.0972
     29 N         143.0146  142.6035  168.0757 N.ar    1  UNL1       -0.2400
     30 C         143.3806  142.2254  166.6710 C.ar    1  UNL1        0.1282
     31 C         142.5259  141.2572  165.9081 C.ar    1  UNL1        0.1588
     32 F         142.8919  140.8792  164.5034 F       1  UNL1       -0.2027
     33 C         141.3053  140.6670  166.5498 C.ar    1  UNL1        0.0500
     34 C         141.0665  141.1371  167.9541 C.ar    1  UNL1        0.0806
     35 N         139.8231  140.4689  168.4614 N.ar    1  UNL1       -0.2915
     36 C         139.2934  139.5859  167.3707 C.3     1  UNL1        0.1402
     37 C         140.2094  139.7084  166.1892 C.3     1  UNL1        0.1335
     38 O         140.9278  139.6269  164.8749 O.3     1  UNL1       -0.3806
     39 H         140.4568  139.0164  164.2864 H       1  UNL1        0.2108
@<TRIPOS>BOND
     1    24    25    2
     2    25    26   ar
     3    26    27   ar
     4    27    28   ar
     5    28    29   ar
     6    29    30   ar
     7    30    31   ar
     8    31    32    1
     9    31    33   ar
    10    33    34   ar
    11    34    35   ar
    12    35    36    1
    13    36    37    1
    14    37    38    1
    15    37    23    1
    16    23     1    1
    17     1     2    1
    18     2     3    1
    19     3     4    1
    20     4     9    1
    21     9    11    1
    22    11    12    1
    23    12    13   ar
    24    13    14   ar
    25    14    15   ar
    26    15    16   ar
    27    16    17   ar
    28    17    18    1
    29    16    19    1
    30    19    20    1
    31    20    21    1
    32    21    22    1
    33     4     5    1
    34     5     6    1
    35     4     7    1
    36     7     8    1
    37    35    25   ar
    38     6     1    1
    39    34    28   ar
    40     8     1    1
    41    37    33    1
    42    17    12   ar
    43    22    15    1
    44    38    39    1
    45     9    10    1
@<TRIPOS>MOLECULE
*****
 39 45 0 0 0
SMALL
GASTEIGER

@<TRIPOS>ATOM
      1 C         138.5794  138.8683  164.4844 C.3     1  UNL1        0.0955
      2 C         138.0362  140.2551  164.3061 C.3     1  UNL1        0.0287
      3 C         137.7108  140.7623  162.9324 C.3     1  UNL1        0.0193
      4 C         137.9287  139.8828  161.7371 C.3     1  UNL1        0.0700
      5 C         138.4718  138.4960  161.9154 C.3     1  UNL1        0.0193
      6 C         138.7972  137.9887  163.2890 C.3     1  UNL1        0.0287
      7 C         138.1217  139.5608  162.4700 C.3     1  UNL1        0.1562
      8 O         138.4159  139.1022  163.7120 O.3     1  UNL1       -0.3571
      9 N         137.6033  140.3900  160.3634 N.3     1  UNL1       -0.2938
     10 H         136.9278  141.1451  160.4807 H       1  UNL1        0.1235
     11 C         138.6951  140.9187  159.4812 C.3     1  UNL1        0.0966
     12 C         139.7899  141.7613  160.0658 C.ar    1  UNL1        0.0074
     13 C         139.5435  143.2108  160.3624 C.ar    1  UNL1        0.0012
     14 C         140.6382  144.0534  160.9470 C.ar    1  UNL1        0.0398
     15 C         141.9793  143.4464  161.2350 C.ar    1  UNL1        0.1732
     16 C         142.2257  141.9968  160.9384 C.ar    1  UNL1        0.1825
     17 C         141.1310  141.1543  160.3538 C.ar    1  UNL1        0.0919
     18 CL        141.3774  139.7047  160.0572 Cl      1  UNL1       -0.0793
     19 O         143.5668  141.3898  161.2263 O.3     1  UNL1       -0.4675
     20 C         144.6615  142.2323  161.8109 C.3     1  UNL1        0.2527
     21 C         144.4151  143.6819  162.1075 C.3     1  UNL1        0.2526
     22 O         143.0740  144.2890  161.8196 O.3     1  UNL1       -0.4683
     23 C         138.9047  138.3610  165.8580 C.3     1  UNL1        0.0604
     24 O         143.2802  140.7285  164.6200 O.2     1  UNL1       -0.2670
     25 C         142.7692  141.1170  165.9757 C.ar    1  UNL1        0.2611
     26 C         143.5303  142.1048  166.8093 C.ar    1  UNL1        0.0623
     27 C         143.0193  142.4934  168.1650 C.ar    1  UNL1        0.0254
     28 C         141.7472  141.8941  168.6871 C.ar    1  UNL1        0.0972
     29 N         141.0104  142.0943  169.9861 N.ar    1  UNL1       -0.2400
     30 C         139.7301  141.4152  170.3732 C.ar    1  UNL1        0.1282
     31 C         139.0808  140.4456  169.4308 C.ar    1  UNL1        0.1588
     32 F         137.8006  139.7665  169.8179 F       1  UNL1       -0.2027
     33 C         139.7117  140.1549  168.1013 C.ar    1  UNL1        0.0500
     34 C         140.9861  140.9063  167.8535 C.ar    1  UNL1        0.0806
     35 N         141.4971  140.5178  166.4978 N.ar    1  UNL1       -0.2915
     36 C         140.5386  139.5262  165.9078 C.3     1  UNL1        0.1402
     37 C         139.4351  139.3020  166.8988 C.3     1  UNL1        0.1335
     38 O         138.2208  138.8810  167.6723 O.3     1  UNL1       -0.3806
     39 H         137.7117  138.2404  167.1514 H       1  UNL1        0.2108
@<TRIPOS>BOND
     1    24    25    2
     2    25    26   ar
     3    26    27   ar
     4    27    28   ar
     5    28    29   ar
     6    29    30   ar
     7    30    31   ar
     8    31    32    1
     9    31    33   ar
    10    33    34   ar
    11    34    35   ar
    12    35    36    1
    13    36    37    1
    14    37    38    1
    15    37    23    1
    16    23     1    1
    17     1     2    1
    18     2     3    1
    19     3     4    1
    20     4     9    1
    21     9    11    1
    22    11    12    1
    23    12    13   ar
    24    13    14   ar
    25    14    15   ar
    26    15    16   ar
    27    16    17   ar
    28    17    18    1
    29    16    19    1
    30    19    20    1
    31    20    21    1
    32    21    22    1
    33     4     5    1
    34     5     6    1
    35     4     7    1
    36     7     8    1
    37    35    25   ar
    38     6     1    1
    39    34    28   ar
    40     8     1    1
    41    37    33    1
    42    17    12   ar
    43    22    15    1
    44    38    39    1
    45     9    10    1
@<TRIPOS>MOLECULE
*****
 39 45 0 0 0
SMALL
GASTEIGER

@<TRIPOS>ATOM
      1 C         143.7091  139.0860  161.8538 C.3     1  UNL1        0.0955
      2 C         143.9864  138.8425  163.3078 C.3     1  UNL1        0.0287
      3 C         144.6632  139.8993  164.1294 C.3     1  UNL1        0.0193
      4 C         145.0627  141.1996  163.4972 C.3     1  UNL1        0.0700
      5 C         144.7853  141.4431  162.0433 C.3     1  UNL1        0.0193
      6 C         144.1085  140.3863  161.2216 C.3     1  UNL1        0.0287
      7 C         144.6942  140.6505  163.0065 C.3     1  UNL1        0.1562
      8 O         144.0822  139.6950  162.2635 O.3     1  UNL1       -0.3571
      9 N         145.7395  142.2564  164.3189 N.3     1  UNL1       -0.2938
     10 H         146.2311  142.8670  163.6662 H       1  UNL1        0.1235
     11 C         144.9276  143.1442  165.2147 C.3     1  UNL1        0.0966
     12 C         143.5858  143.6401  164.7632 C.ar    1  UNL1        0.0074
     13 C         143.4923  144.8379  163.8651 C.ar    1  UNL1        0.0012
     14 C         142.1506  145.3337  163.4135 C.ar    1  UNL1        0.0398
     15 C         140.9024  144.6318  163.8599 C.ar    1  UNL1        0.1732
     16 C         140.9960  143.4340  164.7580 C.ar    1  UNL1        0.1825
     17 C         142.3377  142.9381  165.2096 C.ar    1  UNL1        0.0919
     18 CL        142.4312  141.7403  166.1076 Cl      1  UNL1       -0.0793
     19 O         139.7479  142.7320  165.2045 O.3     1  UNL1       -0.4675
     20 C         138.4061  143.2279  164.7529 C.3     1  UNL1        0.2527
     21 C         138.3125  144.4256  163.8549 C.3     1  UNL1        0.2526
     22 O         139.5607  145.1277  163.4083 O.3     1  UNL1       -0.4683
     23 C         143.0323  138.0292  161.0322 C.3     1  UNL1        0.0604
     24 O         143.9422  136.8563  156.1251 O.2     1  UNL1       -0.2670
     25 C         142.6141  137.5228  156.3298 C.ar    1  UNL1        0.2611
     26 C         141.7141  137.7773  155.1571 C.ar    1  UNL1        0.0623
     27 C         140.3859  138.4438  155.3618 C.ar    1  UNL1        0.0254
     28 C         139.9578  138.8557  156.7391 C.ar    1  UNL1        0.0972
     29 N         138.7043  139.5299  157.2336 N.ar    1  UNL1       -0.2400
     30 C         138.4130  139.8840  158.6618 C.ar    1  UNL1        0.1282
     31 C         139.4141  139.5657  159.7326 C.ar    1  UNL1        0.1588
     32 F         139.1228  139.9198  161.1608 F       1  UNL1       -0.2027
     33 C         140.7065  138.8934  159.3752 C.ar    1  UNL1        0.0500
     34 C         140.8578  138.6011  157.9117 C.ar    1  UNL1        0.0806
     35 N         142.1859  137.9347  157.7071 N.ar    1  UNL1       -0.2915
     36 C         142.8554  137.8151  159.0441 C.3     1  UNL1        0.1402
     37 C         141.9411  138.4077  160.0750 C.3     1  UNL1        0.1335
     38 O         141.2548  138.9211  161.3060 O.3     1  UNL1       -0.3806
     39 H         141.8198  138.7669  162.0793 H       1  UNL1        0.2108
@<TRIPOS>BOND
     1    24    25    2
     2    25    26   ar
     3    26    27   ar
     4    27    28   ar
     5    28    29   ar
     6    29    30   ar
     7    30    31   ar
     8    31    32    1
     9    31    33   ar
    10    33    34   ar
    11    34    35   ar
    12    35    36    1
    13    36    37    1
    14    37    38    1
    15    37    23    1
    16    23     1    1
    17     1     2    1
    18     2     3    1
    19     3     4    1
    20     4     9    1
    21     9    11    1
    22    11    12    1
    23    12    13   ar
    24    13    14   ar
    25    14    15   ar
    26    15    16   ar
    27    16    17   ar
    28    17    18    1
    29    16    19    1
    30    19    20    1
    31    20    21    1
    32    21    22    1
    33     4     5    1
    34     5     6    1
    35     4     7    1
    36     7     8    1
    37    35    25   ar
    38     6     1    1
    39    34    28   ar
    40     8     1    1
    41    37    33    1
    42    17    12   ar
    43    22    15    1
    44    38    39    1
    45     9    10    1
@<TRIPOS>MOLECULE
*****
 39 45 0 0 0
SMALL
GASTEIGER

@<TRIPOS>ATOM
      1 C         142.4116  138.1002  162.7853 C.3     1  UNL1        0.0955
      2 C         142.6243  138.6390  164.1691 C.3     1  UNL1        0.0287
      3 C         141.4725  138.7231  165.1264 C.3     1  UNL1        0.0193
      4 C         140.1081  138.2684  164.7000 C.3     1  UNL1        0.0700
      5 C         139.8955  137.7297  163.3164 C.3     1  UNL1        0.0193
      6 C         141.0472  137.6456  162.3590 C.3     1  UNL1        0.0287
      7 C         140.7086  138.2031  164.1403 C.3     1  UNL1        0.1562
      8 O         141.7499  138.1270  163.2747 O.3     1  UNL1       -0.3571
      9 N         138.9564  138.3525  165.6574 N.3     1  UNL1       -0.2938
     10 H         139.3258  138.1329  166.5824 H       1  UNL1        0.1235
     11 C         138.1848  139.6318  165.7917 C.3     1  UNL1        0.0966
     12 C         138.3388  140.7122  164.7626 C.ar    1  UNL1        0.0074
     13 C         137.5681  140.6395  163.4778 C.ar    1  UNL1        0.0012
     14 C         137.7220  141.7198  162.4486 C.ar    1  UNL1        0.0398
     15 C         138.6467  142.8729  162.7042 C.ar    1  UNL1        0.1732
     16 C         139.4175  142.9456  163.9890 C.ar    1  UNL1        0.1825
     17 C         139.2635  141.8652  165.0182 C.ar    1  UNL1        0.0919
     18 CL        140.0343  141.9380  166.3029 Cl      1  UNL1       -0.0793
     19 O         140.3422  144.0986  164.2447 O.3     1  UNL1       -0.4675
     20 C         140.4961  145.1789  163.2155 C.3     1  UNL1        0.2527
     21 C         139.7255  145.1063  161.9308 C.3     1  UNL1        0.2526
     22 O         138.8007  143.9532  161.6750 O.3     1  UNL1       -0.4683
     23 C         143.5633  138.0162  161.8280 C.3     1  UNL1        0.0604
     24 O         144.2195  143.0512  161.1207 O.2     1  UNL1       -0.2670
     25 C         143.8943  142.3206  159.8516 C.ar    1  UNL1        0.2611
     26 C         143.7932  143.0729  158.5579 C.ar    1  UNL1        0.0623
     27 C         143.4680  142.3423  157.2889 C.ar    1  UNL1        0.0254
     28 C         143.2439  140.8593  157.3136 C.ar    1  UNL1        0.0972
     29 N         142.9096  139.8831  156.2156 N.ar    1  UNL1       -0.2400
     30 C         142.7125  138.4069  156.3948 C.ar    1  UNL1        0.1282
     31 C         142.8462  137.7923  157.7566 C.ar    1  UNL1        0.1588
     32 F         142.6491  136.3162  157.9358 F       1  UNL1       -0.2027
     33 C         143.1771  138.6539  158.9391 C.ar    1  UNL1        0.0500
     34 C         143.3450  140.1070  158.6073 C.ar    1  UNL1        0.0806
     35 N         143.6702  140.8376  159.8763 N.ar    1  UNL1       -0.2915
     36 C         143.7032  139.8360  160.9924 C.3     1  UNL1        0.1402
     37 C         143.3984  138.4863  160.4132 C.3     1  UNL1        0.1335
     38 O         143.1281  137.0384  160.1297 O.3     1  UNL1       -0.3806
     39 H         143.1882  136.5308  160.9541 H       1  UNL1        0.2108
@<TRIPOS>BOND
     1    24    25    2
     2    25    26   ar
     3    26    27   ar
     4    27    28   ar
     5    28    29   ar
     6    29    30   ar
     7    30    31   ar
     8    31    32    1
     9    31    33   ar
    10    33    34   ar
    11    34    35   ar
    12    35    36    1
    13    36    37    1
    14    37    38    1
    15    37    23    1
    16    23     1    1
    17     1     2    1
    18     2     3    1
    19     3     4    1
    20     4     9    1
    21     9    11    1
    22    11    12    1
    23    12    13   ar
    24    13    14   ar
    25    14    15   ar
    26    15    16   ar
    27    16    17   ar
    28    17    18    1
    29    16    19    1
    30    19    20    1
    31    20    21    1
    32    21    22    1
    33     4     5    1
    34     5     6    1
    35     4     7    1
    36     7     8    1
    37    35    25   ar
    38     6     1    1
    39    34    28   ar
    40     8     1    1
    41    37    33    1
    42    17    12   ar
    43    22    15    1
    44    38    39    1
    45     9    10    1
