@<TRIPOS>MOLECULE
*****
 34 37 0 0 0
SMALL
GASTEIGER

@<TRIPOS>ATOM
      1 C         143.6100  139.8697  157.2331 C.3     1  UNL1        0.1537
      2 C         143.1919  140.1747  158.6411 C.3     1  UNL1        0.0505
      3 C         142.2757  139.0794  159.1000 C.3     1  UNL1        0.0938
      4 C         142.1275  138.0974  157.9759 C.3     1  UNL1        0.1136
      5 N         142.9522  138.5859  156.8221 N.am    1  UNL1       -0.2676
      6 C         143.0941  137.9093  155.4908 C.2     1  UNL1        0.2526
      7 O         143.9585  138.5196  154.4277 O.2     1  UNL1       -0.2698
      8 C         142.3716  136.6224  155.2227 C.ar    1  UNL1        0.0940
      9 C         141.1953  136.4455  154.3088 C.ar    1  UNL1        0.1840
     10 O         140.7953  135.0002  154.3429 O.2     1  UNL1       -0.4503
     11 C         141.7242  134.2839  155.2778 C.ar    1  UNL1        0.1456
     12 C         141.8088  132.8483  155.7041 C.ar    1  UNL1        0.0375
     13 C         142.8676  132.4153  156.6743 C.ar    1  UNL1        0.0031
     14 C         143.8419  133.4179  157.2181 C.ar    1  UNL1        0.0002
     15 C         143.7572  134.8535  156.7918 C.ar    1  UNL1        0.0033
     16 C         142.6984  135.2865  155.8216 C.ar    1  UNL1        0.0420
     17 N         145.9481  140.2760  156.1755 N.am    1  UNL1       -0.3030
     18 C         144.5253  140.7023  156.3852 C.2     1  UNL1        0.2406
     19 O         144.0178  141.9614  155.7470 O.2     1  UNL1       -0.2733
     20 H         146.2812  139.4496  156.5944 H       1  UNL1        0.1495
     21 C         147.7437  142.1418  155.9658 C.3     1  UNL1        0.0230
     22 C         146.8633  141.1086  155.3276 C.3     1  UNL1        0.0895
     23 N         141.6223  138.9829  160.4468 N.am    1  UNL1       -0.2995
     24 C         142.3237  138.2817  161.5722 C.2     1  UNL1        0.2633
     25 O         143.6783  137.6771  161.3508 O.2     1  UNL1       -0.2685
     26 H         140.7332  139.3798  160.5921 H       1  UNL1        0.1498
     27 C         141.6702  138.1853  162.9190 C.ar    1  UNL1        0.1323
     28 C         140.2653  137.7335  163.1870 C.ar    1  UNL1        0.0398
     29 C         140.0338  137.7928  164.6678 C.ar    1  UNL1        0.0802
     30 N         141.2959  138.2813  165.3150 N.ar    1  UNL1       -0.1735
     31 N         142.3071  138.5239  164.2341 N.ar    1  UNL1       -0.2447
     32 C         143.7092  139.0183  164.4335 C.3     1  UNL1        0.1539
     33 C         138.7635  137.4277  165.3770 C.3     1  UNL1        0.0476
     34 C         138.1110  138.4123  166.3015 C.3     1  UNL1        0.0068
@<TRIPOS>BOND
     1    21    22    1
     2    22    17    1
     3    17    18   am
     4    18    19    2
     5     1    18    1
     6     1     2    1
     7     2     3    1
     8     3    23    1
     9    23    24   am
    10    24    25    2
    11    24    27    1
    12    27    28   ar
    13    28    29   ar
    14    29    33    1
    15    33    34    1
    16    29    30   ar
    17    30    31   ar
    18    31    32    1
    19     3     4    1
    20     4     5    1
    21     5     6   am
    22     6     7    2
    23     6     8    1
    24     8     9   ar
    25     9    10   ar
    26    10    11   ar
    27    11    12   ar
    28    12    13   ar
    29    13    14   ar
    30    14    15   ar
    31    15    16   ar
    32     5     1    1
    33    16     8   ar
    34    31    27   ar
    35    16    11   ar
    36    17    20    1
    37    23    26    1
@<TRIPOS>MOLECULE
*****
 34 37 0 0 0
SMALL
GASTEIGER

@<TRIPOS>ATOM
      1 C         143.2339  139.2872  157.4566 C.3     1  UNL1        0.1537
      2 C         142.6092  139.8325  158.7065 C.3     1  UNL1        0.0505
      3 C         141.9605  138.6934  159.4355 C.3     1  UNL1        0.0938
      4 C         142.1843  137.4440  158.6361 C.3     1  UNL1        0.1136
      5 N         142.9713  137.8110  157.4131 N.am    1  UNL1       -0.2676
      6 C         143.4174  136.8675  156.3356 C.2     1  UNL1        0.2526
      7 O         144.2022  137.3823  155.1657 O.2     1  UNL1       -0.2698
      8 C         143.0786  135.4092  156.4283 C.ar    1  UNL1        0.0940
      9 C         143.3624  134.5105  157.5953 C.ar    1  UNL1        0.1840
     10 O         142.8557  133.1395  157.2585 O.2     1  UNL1       -0.4503
     11 C         142.2588  133.1907  155.8833 C.ar    1  UNL1        0.1456
     12 C         141.6075  132.1414  155.0321 C.ar    1  UNL1        0.0375
     13 C         141.0941  132.4947  153.6678 C.ar    1  UNL1        0.0031
     14 C         141.2318  133.8975  153.1547 C.ar    1  UNL1        0.0002
     15 C         141.8830  134.9469  154.0059 C.ar    1  UNL1        0.0033
     16 C         142.3965  134.5935  155.3703 C.ar    1  UNL1        0.0420
     17 N         145.4850  139.9926  156.3678 N.am    1  UNL1       -0.3030
     18 C         143.9887  140.0790  156.4303 C.2     1  UNL1        0.2406
     19 O         143.2473  140.9573  155.4664 O.2     1  UNL1       -0.2733
     20 H         145.9716  139.4162  157.0005 H       1  UNL1        0.1495
     21 C         146.9064  142.0712  155.7285 C.3     1  UNL1        0.0230
     22 C         146.2398  140.7844  155.3416 C.3     1  UNL1        0.0895
     23 N         141.2184  138.7871  160.7356 N.am    1  UNL1       -0.2995
     24 C         141.9055  138.4261  162.0193 C.2     1  UNL1        0.2633
     25 O         143.3347  137.9713  162.0026 O.2     1  UNL1       -0.2685
     26 H         140.2803  139.0856  160.7465 H       1  UNL1        0.1498
     27 C         141.1632  138.5198  163.3194 C.ar    1  UNL1        0.1323
     28 C         139.9189  137.7642  163.6808 C.ar    1  UNL1        0.0398
     29 C         139.5217  138.1631  165.0711 C.ar    1  UNL1        0.0802
     30 N         140.5206  139.1654  165.5689 N.ar    1  UNL1       -0.1735
     31 N         141.5351  139.3858  164.4863 N.ar    1  UNL1       -0.2447
     32 C         142.7144  140.3100  164.5580 C.3     1  UNL1        0.1539
     33 C         138.3342  137.6499  165.8303 C.3     1  UNL1        0.0476
     34 C         137.7210  138.4834  166.9163 C.3     1  UNL1        0.0068
@<TRIPOS>BOND
     1    21    22    1
     2    22    17    1
     3    17    18   am
     4    18    19    2
     5     1    18    1
     6     1     2    1
     7     2     3    1
     8     3    23    1
     9    23    24   am
    10    24    25    2
    11    24    27    1
    12    27    28   ar
    13    28    29   ar
    14    29    33    1
    15    33    34    1
    16    29    30   ar
    17    30    31   ar
    18    31    32    1
    19     3     4    1
    20     4     5    1
    21     5     6   am
    22     6     7    2
    23     6     8    1
    24     8     9   ar
    25     9    10   ar
    26    10    11   ar
    27    11    12   ar
    28    12    13   ar
    29    13    14   ar
    30    14    15   ar
    31    15    16   ar
    32     5     1    1
    33    16     8   ar
    34    31    27   ar
    35    16    11   ar
    36    17    20    1
    37    23    26    1
@<TRIPOS>MOLECULE
*****
 34 37 0 0 0
SMALL
GASTEIGER

@<TRIPOS>ATOM
      1 C         143.5947  139.8993  157.1988 C.3     1  UNL1        0.1537
      2 C         143.1724  140.2305  158.5996 C.3     1  UNL1        0.0505
      3 C         142.2562  139.1430  159.0768 C.3     1  UNL1        0.0938
      4 C         142.1121  138.1397  157.9711 C.3     1  UNL1        0.1136
      5 N         142.9394  138.6071  156.8105 N.am    1  UNL1       -0.2676
      6 C         143.0857  137.9055  155.4927 C.2     1  UNL1        0.2526
      7 O         143.9523  138.4965  154.4206 O.2     1  UNL1       -0.2698
      8 C         142.3653  136.6129  155.2472 C.ar    1  UNL1        0.0940
      9 C         141.1692  136.4245  154.3620 C.ar    1  UNL1        0.1840
     10 O         140.7793  134.9769  154.4116 O.2     1  UNL1       -0.4503
     11 C         141.7344  134.2706  155.3275 C.ar    1  UNL1        0.1456
     12 C         141.8382  132.8375  155.7579 C.ar    1  UNL1        0.0375
     13 C         142.9223  132.4155  156.7048 C.ar    1  UNL1        0.0031
     14 C         143.9026  133.4266  157.2212 C.ar    1  UNL1        0.0002
     15 C         143.7988  134.8597  156.7908 C.ar    1  UNL1        0.0033
     16 C         142.7147  135.2817  155.8439 C.ar    1  UNL1        0.0420
     17 N         145.9365  140.2908  156.1439 N.am    1  UNL1       -0.3030
     18 C         144.5113  140.7167  156.3377 C.2     1  UNL1        0.2406
     19 O         144.0028  141.9601  155.6703 O.2     1  UNL1       -0.2733
     20 H         146.2702  139.4747  156.5819 H       1  UNL1        0.1495
     21 C         147.5840  142.2804  155.8672 C.3     1  UNL1        0.0230
     22 C         146.8531  141.1082  155.2828 C.3     1  UNL1        0.0895
     23 N         141.5992  139.0714  160.4234 N.am    1  UNL1       -0.2995
     24 C         140.1093  139.2017  160.5390 C.2     1  UNL1        0.2633
     25 O         139.2764  139.4035  159.3080 O.2     1  UNL1       -0.2685
     26 H         142.1459  138.9389  161.2313 H       1  UNL1        0.1498
     27 C         139.4525  139.1300  161.8856 C.ar    1  UNL1        0.1323
     28 C         139.6268  138.0339  162.8945 C.ar    1  UNL1        0.0398
     29 C         138.7880  138.3684  164.0922 C.ar    1  UNL1        0.0802
     30 N         138.0952  139.6715  163.8234 N.ar    1  UNL1       -0.1735
     31 N         138.5059  140.1422  162.4597 N.ar    1  UNL1       -0.2447
     32 C         138.0500  141.4035  161.7880 C.3     1  UNL1        0.1539
     33 C         138.6638  137.5447  165.3395 C.3     1  UNL1        0.0476
     34 C         137.9500  138.0993  166.5366 C.3     1  UNL1        0.0068
@<TRIPOS>BOND
     1    21    22    1
     2    22    17    1
     3    17    18   am
     4    18    19    2
     5     1    18    1
     6     1     2    1
     7     2     3    1
     8     3    23    1
     9    23    24   am
    10    24    25    2
    11    24    27    1
    12    27    28   ar
    13    28    29   ar
    14    29    33    1
    15    33    34    1
    16    29    30   ar
    17    30    31   ar
    18    31    32    1
    19     3     4    1
    20     4     5    1
    21     5     6   am
    22     6     7    2
    23     6     8    1
    24     8     9   ar
    25     9    10   ar
    26    10    11   ar
    27    11    12   ar
    28    12    13   ar
    29    13    14   ar
    30    14    15   ar
    31    15    16   ar
    32     5     1    1
    33    16     8   ar
    34    31    27   ar
    35    16    11   ar
    36    17    20    1
    37    23    26    1
@<TRIPOS>MOLECULE
*****
 34 37 0 0 0
SMALL
GASTEIGER

@<TRIPOS>ATOM
      1 C         143.2033  139.6904  156.9922 C.3     1  UNL1        0.1537
      2 C         142.3021  140.3898  157.9663 C.3     1  UNL1        0.0505
      3 C         141.4638  139.3509  158.6504 C.3     1  UNL1        0.0938
      4 C         141.8468  138.0095  158.0991 C.3     1  UNL1        0.1136
      5 N         142.9219  138.2193  157.0743 N.am    1  UNL1       -0.2676
      6 C         143.5970  137.1463  156.2724 C.2     1  UNL1        0.2526
      7 O         144.6606  137.5095  155.2791 O.2     1  UNL1       -0.2698
      8 C         143.2085  135.7102  156.4639 C.ar    1  UNL1        0.0940
      9 C         143.4042  134.9029  157.7130 C.ar    1  UNL1        0.1840
     10 O         142.8728  133.5231  157.4610 O.2     1  UNL1       -0.4503
     11 C         142.3486  133.4775  156.0563 C.ar    1  UNL1        0.1456
     12 C         141.7092  132.3798  155.2587 C.ar    1  UNL1        0.0375
     13 C         141.2773  132.6339  153.8449 C.ar    1  UNL1        0.0031
     14 C         141.4849  133.9856  153.2287 C.ar    1  UNL1        0.0002
     15 C         142.1243  135.0833  154.0262 C.ar    1  UNL1        0.0033
     16 C         142.5562  134.8293  155.4400 C.ar    1  UNL1        0.0420
     17 N         145.6685  140.2937  156.4368 N.am    1  UNL1       -0.3030
     18 C         144.2092  140.3468  156.0938 C.2     1  UNL1        0.2406
     19 O         143.7559  141.0562  154.8524 O.2     1  UNL1       -0.2733
     20 H         145.9661  139.8281  157.2516 H       1  UNL1        0.1495
     21 C         147.2966  142.2556  155.9366 C.3     1  UNL1        0.0230
     22 C         146.6745  140.9501  155.5384 C.3     1  UNL1        0.0895
     23 N         140.4249  139.6083  159.7012 N.am    1  UNL1       -0.2995
     24 C         140.8371  140.0839  161.0629 C.2     1  UNL1        0.2633
     25 O         142.2882  140.3020  161.3736 O.2     1  UNL1       -0.2685
     26 H         139.4724  139.4652  159.4973 H       1  UNL1        0.1498
     27 C         139.7980  140.3413  162.1137 C.ar    1  UNL1        0.1323
     28 C         139.4033  141.6841  162.6532 C.ar    1  UNL1        0.0398
     29 C         138.3326  141.4736  163.6824 C.ar    1  UNL1        0.0802
     30 N         138.0657  140.0007  163.7790 N.ar    1  UNL1       -0.1735
     31 N         138.9713  139.3009  162.8095 N.ar    1  UNL1       -0.2447
     32 C         139.0385  137.8206  162.5767 C.3     1  UNL1        0.1539
     33 C         137.6490  142.5475  164.4757 C.3     1  UNL1        0.0476
     34 C         138.0041  143.9874  164.2507 C.3     1  UNL1        0.0068
@<TRIPOS>BOND
     1    21    22    1
     2    22    17    1
     3    17    18   am
     4    18    19    2
     5     1    18    1
     6     1     2    1
     7     2     3    1
     8     3    23    1
     9    23    24   am
    10    24    25    2
    11    24    27    1
    12    27    28   ar
    13    28    29   ar
    14    29    33    1
    15    33    34    1
    16    29    30   ar
    17    30    31   ar
    18    31    32    1
    19     3     4    1
    20     4     5    1
    21     5     6   am
    22     6     7    2
    23     6     8    1
    24     8     9   ar
    25     9    10   ar
    26    10    11   ar
    27    11    12   ar
    28    12    13   ar
    29    13    14   ar
    30    14    15   ar
    31    15    16   ar
    32     5     1    1
    33    16     8   ar
    34    31    27   ar
    35    16    11   ar
    36    17    20    1
    37    23    26    1
@<TRIPOS>MOLECULE
*****
 34 37 0 0 0
SMALL
GASTEIGER

@<TRIPOS>ATOM
      1 C         142.7798  139.1316  164.6555 C.3     1  UNL1        0.1537
      2 C         142.4649  138.0877  163.6254 C.3     1  UNL1        0.0505
      3 C         142.1462  138.7884  162.3380 C.3     1  UNL1        0.0938
      4 C         142.2641  140.2652  162.5724 C.3     1  UNL1        0.1136
      5 N         142.6558  140.4773  164.0048 N.am    1  UNL1       -0.2676
      6 C         142.8834  141.8026  164.6696 C.2     1  UNL1        0.2526
      7 O         143.2731  141.8584  166.1169 O.2     1  UNL1       -0.2698
      8 C         142.7211  143.0720  163.8870 C.ar    1  UNL1        0.0940
      9 C         143.8319  143.9155  163.3351 C.ar    1  UNL1        0.1840
     10 O         143.2169  145.0855  162.6260 O.2     1  UNL1       -0.4503
     11 C         141.7261  144.9651  162.7397 C.ar    1  UNL1        0.1456
     12 C         140.6080  145.8278  162.2342 C.ar    1  UNL1        0.0375
     13 C         139.1835  145.4461  162.5081 C.ar    1  UNL1        0.0031
     14 C         138.8771  144.2016  163.2875 C.ar    1  UNL1        0.0002
     15 C         139.9952  143.3389  163.7930 C.ar    1  UNL1        0.0033
     16 C         141.4197  143.7206  163.5191 C.ar    1  UNL1        0.0420
     17 N         142.3018  139.4215  167.1928 N.am    1  UNL1       -0.3030
     18 C         143.1532  138.8748  166.0854 C.2     1  UNL1        0.2406
     19 O         144.3781  138.0712  166.4080 O.2     1  UNL1       -0.2733
     20 H         141.4979  139.9490  166.9811 H       1  UNL1        0.1495
     21 C         142.7029  140.2974  169.6055 C.3     1  UNL1        0.0230
     22 C         142.6752  139.1647  168.6226 C.3     1  UNL1        0.0895
     23 N         141.7747  138.1281  161.0434 N.am    1  UNL1       -0.2995
     24 C         142.7005  138.2117  159.8660 C.2     1  UNL1        0.2633
     25 O         143.9977  138.9557  159.9834 O.2     1  UNL1       -0.2685
     26 H         140.9233  137.6398  160.9664 H       1  UNL1        0.1498
     27 C         142.3290  137.5514  158.5714 C.ar    1  UNL1        0.1323
     28 C         143.0416  136.3951  157.9350 C.ar    1  UNL1        0.0398
     29 C         142.3326  136.0606  156.6563 C.ar    1  UNL1        0.0802
     30 N         141.1817  137.0103  156.5023 N.ar    1  UNL1       -0.1735
     31 N         141.1795  137.9316  157.6860 N.ar    1  UNL1       -0.2447
     32 C         140.1998  139.0388  157.9396 C.3     1  UNL1        0.1539
     33 C         142.7084  134.9683  155.6995 C.3     1  UNL1        0.0476
     34 C         141.6415  134.1207  155.0722 C.3     1  UNL1        0.0068
@<TRIPOS>BOND
     1    21    22    1
     2    22    17    1
     3    17    18   am
     4    18    19    2
     5     1    18    1
     6     1     2    1
     7     2     3    1
     8     3    23    1
     9    23    24   am
    10    24    25    2
    11    24    27    1
    12    27    28   ar
    13    28    29   ar
    14    29    33    1
    15    33    34    1
    16    29    30   ar
    17    30    31   ar
    18    31    32    1
    19     3     4    1
    20     4     5    1
    21     5     6   am
    22     6     7    2
    23     6     8    1
    24     8     9   ar
    25     9    10   ar
    26    10    11   ar
    27    11    12   ar
    28    12    13   ar
    29    13    14   ar
    30    14    15   ar
    31    15    16   ar
    32     5     1    1
    33    16     8   ar
    34    31    27   ar
    35    16    11   ar
    36    17    20    1
    37    23    26    1
@<TRIPOS>MOLECULE
*****
 34 37 0 0 0
SMALL
GASTEIGER

@<TRIPOS>ATOM
      1 C         143.5140  138.9727  156.8533 C.3     1  UNL1        0.1537
      2 C         143.3205  137.8591  155.8671 C.3     1  UNL1        0.0505
      3 C         142.6960  136.7029  156.5904 C.3     1  UNL1        0.0938
      4 C         142.5036  137.1018  158.0234 C.3     1  UNL1        0.1136
      5 N         143.0091  138.5047  158.1859 N.am    1  UNL1       -0.2676
      6 C         143.0096  139.2999  159.4579 C.2     1  UNL1        0.2526
      7 O         143.5506  140.6988  159.4674 O.2     1  UNL1       -0.2698
      8 C         142.4690  138.6961  160.7201 C.ar    1  UNL1        0.0940
      9 C         143.2829  138.1240  161.8427 C.ar    1  UNL1        0.1840
     10 O         142.3365  137.6328  162.8977 O.2     1  UNL1       -0.4503
     11 C         140.9377  137.9013  162.4271 C.ar    1  UNL1        0.1456
     12 C         139.6001  137.6323  163.0502 C.ar    1  UNL1        0.0375
     13 C         138.3444  138.0205  162.3275 C.ar    1  UNL1        0.0031
     14 C         138.4263  138.6777  160.9816 C.ar    1  UNL1        0.0002
     15 C         139.7639  138.9467  160.3585 C.ar    1  UNL1        0.0033
     16 C         141.0196  138.5585  161.0813 C.ar    1  UNL1        0.0420
     17 N         145.5584  140.5760  156.8418 N.am    1  UNL1       -0.3030
     18 C         144.1080  140.3181  156.5585 C.2     1  UNL1        0.2406
     19 O         143.2519  141.4057  155.9805 O.2     1  UNL1       -0.2733
     20 H         146.1203  139.8622  157.2211 H       1  UNL1        0.1495
     21 C         146.8175  142.1746  155.2266 C.3     1  UNL1        0.0230
     22 C         146.1524  141.9214  156.5470 C.3     1  UNL1        0.0895
     23 N         142.3286  135.3799  155.9865 N.am    1  UNL1       -0.2995
     24 C         142.9034  134.1134  156.5484 C.2     1  UNL1        0.2633
     25 O         143.8455  134.1699  157.7141 O.2     1  UNL1       -0.2685
     26 H         141.7102  135.3428  155.2214 H       1  UNL1        0.1498
     27 C         142.5358  132.7904  155.9445 C.ar    1  UNL1        0.1323
     28 C         141.2089  132.4339  155.3427 C.ar    1  UNL1        0.0398
     29 C         141.2838  131.0149  154.8627 C.ar    1  UNL1        0.0802
     30 N         142.6571  130.4943  155.1677 N.ar    1  UNL1       -0.1735
     31 N         143.4308  131.5916  155.8363 N.ar    1  UNL1       -0.2447
     32 C         144.8505  131.5052  156.3130 C.3     1  UNL1        0.1539
     33 C         140.1793  130.2506  154.1948 C.3     1  UNL1        0.0476
     34 C         139.5843  130.7573  152.9145 C.3     1  UNL1        0.0068
@<TRIPOS>BOND
     1    21    22    1
     2    22    17    1
     3    17    18   am
     4    18    19    2
     5     1    18    1
     6     1     2    1
     7     2     3    1
     8     3    23    1
     9    23    24   am
    10    24    25    2
    11    24    27    1
    12    27    28   ar
    13    28    29   ar
    14    29    33    1
    15    33    34    1
    16    29    30   ar
    17    30    31   ar
    18    31    32    1
    19     3     4    1
    20     4     5    1
    21     5     6   am
    22     6     7    2
    23     6     8    1
    24     8     9   ar
    25     9    10   ar
    26    10    11   ar
    27    11    12   ar
    28    12    13   ar
    29    13    14   ar
    30    14    15   ar
    31    15    16   ar
    32     5     1    1
    33    16     8   ar
    34    31    27   ar
    35    16    11   ar
    36    17    20    1
    37    23    26    1
@<TRIPOS>MOLECULE
*****
 34 37 0 0 0
SMALL
GASTEIGER

@<TRIPOS>ATOM
      1 C         142.3097  141.7397  158.6198 C.3     1  UNL1        0.1537
      2 C         142.3736  140.6641  157.5762 C.3     1  UNL1        0.0505
      3 C         143.0863  139.4849  158.1690 C.3     1  UNL1        0.0938
      4 C         143.4629  139.8316  159.5790 C.3     1  UNL1        0.1136
      5 N         142.9829  141.2252  159.8576 N.am    1  UNL1       -0.2676
      6 C         143.1474  141.9729  161.1476 C.2     1  UNL1        0.2526
      7 O         142.6123  143.3680  161.2791 O.2     1  UNL1       -0.2698
      8 C         143.8468  141.3255  162.3058 C.ar    1  UNL1        0.0940
      9 C         145.2630  141.5757  162.7323 C.ar    1  UNL1        0.1840
     10 O         145.5442  140.7190  163.9311 O.2     1  UNL1       -0.4503
     11 C         144.3019  139.9394  164.2454 C.ar    1  UNL1        0.1456
     12 C         143.9904  138.9366  165.3166 C.ar    1  UNL1        0.0375
     13 C         142.6299  138.3086  165.3832 C.ar    1  UNL1        0.0031
     14 C         141.5808  138.6834  164.3788 C.ar    1  UNL1        0.0002
     15 C         141.8923  139.6862  163.3076 C.ar    1  UNL1        0.0033
     16 C         143.2528  140.3142  163.2410 C.ar    1  UNL1        0.0420
     17 N         142.5491  144.3045  158.2814 N.am    1  UNL1       -0.3030
     18 C         141.6827  143.0923  158.4547 C.2     1  UNL1        0.2406
     19 O         140.1893  143.2327  158.4629 O.2     1  UNL1       -0.2733
     20 H         143.5292  144.2123  158.2761 H       1  UNL1        0.1495
     21 C         141.3825  146.0756  156.7808 C.3     1  UNL1        0.0230
     22 C         141.9221  145.6571  158.1163 C.3     1  UNL1        0.0895
     23 N         143.3722  138.1868  157.4739 N.am    1  UNL1       -0.2995
     24 C         142.2524  137.2359  157.1706 C.2     1  UNL1        0.2633
     25 O         140.8469  137.5831  157.5624 O.2     1  UNL1       -0.2685
     26 H         144.2948  137.9589  157.2168 H       1  UNL1        0.1498
     27 C         142.5385  135.9378  156.4754 C.ar    1  UNL1        0.1323
     28 C         143.5281  134.9006  156.9167 C.ar    1  UNL1        0.0398
     29 C         143.4863  133.7709  155.9309 C.ar    1  UNL1        0.0802
     30 N         142.4706  134.1099  154.8803 N.ar    1  UNL1       -0.1735
     31 N         141.8849  135.4491  155.2169 N.ar    1  UNL1       -0.2447
     32 C         140.8307  136.1726  154.4325 C.3     1  UNL1        0.1539
     33 C         144.3145  132.5215  155.9860 C.3     1  UNL1        0.0476
     34 C         143.9100  131.3177  155.1877 C.3     1  UNL1        0.0068
@<TRIPOS>BOND
     1    21    22    1
     2    22    17    1
     3    17    18   am
     4    18    19    2
     5     1    18    1
     6     1     2    1
     7     2     3    1
     8     3    23    1
     9    23    24   am
    10    24    25    2
    11    24    27    1
    12    27    28   ar
    13    28    29   ar
    14    29    33    1
    15    33    34    1
    16    29    30   ar
    17    30    31   ar
    18    31    32    1
    19     3     4    1
    20     4     5    1
    21     5     6   am
    22     6     7    2
    23     6     8    1
    24     8     9   ar
    25     9    10   ar
    26    10    11   ar
    27    11    12   ar
    28    12    13   ar
    29    13    14   ar
    30    14    15   ar
    31    15    16   ar
    32     5     1    1
    33    16     8   ar
    34    31    27   ar
    35    16    11   ar
    36    17    20    1
    37    23    26    1
@<TRIPOS>MOLECULE
*****
 34 37 0 0 0
SMALL
GASTEIGER

@<TRIPOS>ATOM
      1 C         143.6127  142.1822  158.5284 C.3     1  UNL1        0.1537
      2 C         143.3621  141.8148  159.9609 C.3     1  UNL1        0.0505
      3 C         142.1090  142.5092  160.4051 C.3     1  UNL1        0.0938
      4 C         141.5850  143.3058  159.2471 C.3     1  UNL1        0.1136
      5 N         142.5144  143.1037  158.0872 N.am    1  UNL1       -0.2676
      6 C         142.3707  143.7157  156.7252 C.2     1  UNL1        0.2526
      7 O         143.3842  143.4203  155.6596 O.2     1  UNL1       -0.2698
      8 C         141.2136  144.6230  156.4290 C.ar    1  UNL1        0.0940
      9 C         141.1215  146.0782  156.7812 C.ar    1  UNL1        0.1840
     10 O         139.7964  146.5889  156.2984 O.2     1  UNL1       -0.4503
     11 C         139.0695  145.4495  155.6478 C.ar    1  UNL1        0.1456
     12 C         137.7232  145.3613  154.9923 C.ar    1  UNL1        0.0375
     13 C         137.2528  144.0581  154.4176 C.ar    1  UNL1        0.0031
     14 C         138.1287  142.8431  154.4983 C.ar    1  UNL1        0.0002
     15 C         139.4750  142.9313  155.1537 C.ar    1  UNL1        0.0033
     16 C         139.9454  144.2345  155.7285 C.ar    1  UNL1        0.0420
     17 N         145.7788  142.6935  157.1879 N.am    1  UNL1       -0.3030
     18 C         144.7602  141.7110  157.6850 C.2     1  UNL1        0.2406
     19 O         144.8890  140.2572  157.3388 O.2     1  UNL1       -0.2733
     20 H         145.6943  143.6477  157.4152 H       1  UNL1        0.1495
     21 C         147.3622  143.0253  155.1551 C.3     1  UNL1        0.0230
     22 C         146.9263  142.2222  156.3446 C.3     1  UNL1        0.0895
     23 N         141.4886  142.4223  161.7680 N.am    1  UNL1       -0.2995
     24 C         141.7711  143.4835  162.7898 C.2     1  UNL1        0.2633
     25 O         142.6740  144.6317  162.4486 O.2     1  UNL1       -0.2685
     26 H         140.8960  141.6687  161.9919 H       1  UNL1        0.1498
     27 C         141.1507  143.3965  164.1527 C.ar    1  UNL1        0.1323
     28 C         141.7475  142.7210  165.3517 C.ar    1  UNL1        0.0398
     29 C         140.7901  142.8768  166.4958 C.ar    1  UNL1        0.0802
     30 N         139.6016  143.6486  166.0040 N.ar    1  UNL1       -0.1735
     31 N         139.8245  143.9698  164.5559 N.ar    1  UNL1       -0.2447
     32 C         138.8860  144.7307  163.6670 C.3     1  UNL1        0.1539
     33 C         140.9867  142.3528  167.8875 C.3     1  UNL1        0.0476
     34 C         140.4656  143.1278  169.0613 C.3     1  UNL1        0.0068
@<TRIPOS>BOND
     1    21    22    1
     2    22    17    1
     3    17    18   am
     4    18    19    2
     5     1    18    1
     6     1     2    1
     7     2     3    1
     8     3    23    1
     9    23    24   am
    10    24    25    2
    11    24    27    1
    12    27    28   ar
    13    28    29   ar
    14    29    33    1
    15    33    34    1
    16    29    30   ar
    17    30    31   ar
    18    31    32    1
    19     3     4    1
    20     4     5    1
    21     5     6   am
    22     6     7    2
    23     6     8    1
    24     8     9   ar
    25     9    10   ar
    26    10    11   ar
    27    11    12   ar
    28    12    13   ar
    29    13    14   ar
    30    14    15   ar
    31    15    16   ar
    32     5     1    1
    33    16     8   ar
    34    31    27   ar
    35    16    11   ar
    36    17    20    1
    37    23    26    1
@<TRIPOS>MOLECULE
*****
 34 37 0 0 0
SMALL
GASTEIGER

@<TRIPOS>ATOM
      1 C         142.6419  138.6416  162.7320 C.3     1  UNL1        0.1537
      2 C         142.8410  137.6906  161.5892 C.3     1  UNL1        0.0505
      3 C         142.8142  138.4836  160.3163 C.3     1  UNL1        0.0938
      4 C         142.5984  139.9247  160.6723 C.3     1  UNL1        0.1136
      5 N         142.4919  140.0223  162.1653 N.am    1  UNL1       -0.2676
      6 C         142.2738  141.2799  162.9534 C.2     1  UNL1        0.2526
      7 O         142.1880  141.2219  164.4497 O.2     1  UNL1       -0.2698
      8 C         142.1415  142.5955  162.2449 C.ar    1  UNL1        0.0940
      9 C         143.1444  143.1952  161.3045 C.ar    1  UNL1        0.1840
     10 O         142.6058  144.5126  160.8309 O.2     1  UNL1       -0.4503
     11 C         141.2699  144.7271  161.4786 C.ar    1  UNL1        0.1456
     12 C         140.2777  145.8482  161.3856 C.ar    1  UNL1        0.0375
     13 C         138.9986  145.7844  162.1664 C.ar    1  UNL1        0.0031
     14 C         138.7117  144.5995  163.0403 C.ar    1  UNL1        0.0002
     15 C         139.7039  143.4784  163.1334 C.ar    1  UNL1        0.0033
     16 C         140.9830  143.5422  162.3526 C.ar    1  UNL1        0.0420
     17 N         143.6839  138.7477  165.1096 N.am    1  UNL1       -0.3030
     18 C         142.6000  138.2760  164.1861 C.2     1  UNL1        0.2406
     19 O         141.4742  137.4389  164.7169 O.2     1  UNL1       -0.2733
     20 H         144.4228  139.2971  164.7613 H       1  UNL1        0.1495
     21 C         142.8539  139.2210  167.5255 C.3     1  UNL1        0.0230
     22 C         143.6420  138.3821  166.5637 C.3     1  UNL1        0.0895
     23 N         142.9749  137.9324  158.9306 N.am    1  UNL1       -0.2995
     24 C         141.7976  137.8816  158.0023 C.2     1  UNL1        0.2633
     25 O         140.4597  138.3820  158.4599 O.2     1  UNL1       -0.2685
     26 H         143.8530  137.6039  158.6303 H       1  UNL1        0.1498
     27 C         141.9584  137.3303  156.6166 C.ar    1  UNL1        0.1323
     28 C         142.2493  135.9016  156.2643 C.ar    1  UNL1        0.0398
     29 C         142.3272  135.7993  154.7699 C.ar    1  UNL1        0.0802
     30 N         142.0844  137.1649  154.1985 N.ar    1  UNL1       -0.1735
     31 N         141.8564  138.1110  155.3399 N.ar    1  UNL1       -0.2447
     32 C         141.5758  139.5800  155.2248 C.3     1  UNL1        0.1539
     33 C         142.5999  134.5508  153.9846 C.3     1  UNL1        0.0476
     34 C         141.6751  134.1453  152.8754 C.3     1  UNL1        0.0068
@<TRIPOS>BOND
     1    21    22    1
     2    22    17    1
     3    17    18   am
     4    18    19    2
     5     1    18    1
     6     1     2    1
     7     2     3    1
     8     3    23    1
     9    23    24   am
    10    24    25    2
    11    24    27    1
    12    27    28   ar
    13    28    29   ar
    14    29    33    1
    15    33    34    1
    16    29    30   ar
    17    30    31   ar
    18    31    32    1
    19     3     4    1
    20     4     5    1
    21     5     6   am
    22     6     7    2
    23     6     8    1
    24     8     9   ar
    25     9    10   ar
    26    10    11   ar
    27    11    12   ar
    28    12    13   ar
    29    13    14   ar
    30    14    15   ar
    31    15    16   ar
    32     5     1    1
    33    16     8   ar
    34    31    27   ar
    35    16    11   ar
    36    17    20    1
    37    23    26    1
