@<TRIPOS>MOLECULE
*****
 36 39 0 0 0
SMALL
GASTEIGER

@<TRIPOS>ATOM
      1 O         139.6450  144.1373  159.3378 O.2     1  UNL1       -0.2707
      2 C         140.4065  145.1233  160.1732 C.2     1  UNL1        0.2707
      3 N         141.8672  144.9105  160.4397 N.am    1  UNL1       -0.2809
      4 H         142.3670  145.5576  160.9880 H       1  UNL1        0.1550
      5 C         142.5664  143.7116  159.8707 C.ar    1  UNL1        0.0505
      6 C         142.8877  143.6555  158.4065 C.ar    1  UNL1        0.0147
      7 C         143.5869  142.4567  157.8375 C.ar    1  UNL1        0.0014
      8 C         143.9649  141.3139  158.7326 C.ar    1  UNL1        0.0046
      9 C         143.6437  141.3700  160.1967 C.ar    1  UNL1        0.0546
     10 C         142.9444  142.5689  160.7657 C.ar    1  UNL1        0.0192
     11 C         144.0217  140.2272  161.0917 C.2     1  UNL1        0.2459
     12 O         144.3647  138.8923  160.4995 O.2     1  UNL1       -0.2701
     13 N         144.0567  140.4192  162.5789 N.am    1  UNL1       -0.3009
     14 H         143.8316  141.2953  162.9676 H       1  UNL1        0.1497
     15 C         144.4347  139.2764  163.4740 C.3     1  UNL1        0.0896
     16 C         143.8045  139.1447  164.8288 C.3     1  UNL1        0.0196
     17 C         143.3526  138.2871  165.9734 C.3     1  UNL1        0.0017
     18 C         143.1650  139.7742  166.0308 C.3     1  UNL1        0.0017
     19 C         139.7072  146.3222  160.7423 C.3     1  UNL1        0.2897
     20 O         139.0074  146.2244  162.0654 O.3     1  UNL1       -0.4656
     21 C         139.1894  145.0065  162.9219 C.ar    1  UNL1        0.1393
     22 C         138.1559  143.9194  162.9092 C.ar    1  UNL1        0.0370
     23 C         138.3379  142.7016  163.7657 C.ar    1  UNL1        0.0063
     24 C         139.5534  142.5708  164.6349 C.ar    1  UNL1        0.0392
     25 C         140.5869  143.6578  164.6476 C.ar    1  UNL1        0.0063
     26 C         140.4048  144.8757  163.7911 C.ar    1  UNL1        0.0370
     27 C         139.7354  141.3528  165.4915 C.2     1  UNL1        0.1961
     28 O         139.9257  141.4989  166.9721 O.2     1  UNL1       -0.2866
     29 C         139.7270  139.9889  164.8673 C.ar    1  UNL1        0.0460
     30 C         140.5086  139.7334  163.6128 C.ar    1  UNL1        0.0151
     31 C         140.5002  138.3694  162.9886 C.ar    1  UNL1        0.0578
     32 CL        141.2817  138.1139  161.7341 Cl      1  UNL1       -0.0822
     33 C         139.7103  137.2610  163.6190 C.ar    1  UNL1        0.0119
     34 C         138.9287  137.5165  164.8735 C.ar    1  UNL1        0.0077
     35 C         138.9371  138.8804  165.4977 C.ar    1  UNL1        0.0377
     36 BR        138.1555  139.1360  166.7522 Br      1  UNL1       -0.0489
@<TRIPOS>BOND
     1     1     2    2
     2     2    19    1
     3    19    20    1
     4    20    21    1
     5    21    22   ar
     6    22    23   ar
     7    23    24   ar
     8    24    27    1
     9    27    28    2
    10    27    29    1
    11    29    30   ar
    12    30    31   ar
    13    31    32    1
    14    31    33   ar
    15    33    34   ar
    16    34    35   ar
    17    35    36    1
    18    24    25   ar
    19    25    26   ar
    20     2     3   am
    21     3     5    1
    22     5     6   ar
    23     6     7   ar
    24     7     8   ar
    25     8     9   ar
    26     9    11    1
    27    11    12    2
    28    11    13   am
    29    13    15    1
    30    15    16    1
    31    16    17    1
    32    17    18    1
    33     9    10   ar
    34    26    21   ar
    35    10     5   ar
    36    35    29   ar
    37    18    16    1
    38     3     4    1
    39    13    14    1
@<TRIPOS>MOLECULE
*****
 36 39 0 0 0
SMALL
GASTEIGER

@<TRIPOS>ATOM
      1 O         138.4707  143.5566  160.7870 O.2     1  UNL1       -0.2707
      2 C         139.8164  144.2078  160.6643 C.2     1  UNL1        0.2707
      3 N         141.0173  143.3853  160.3022 N.am    1  UNL1       -0.2809
      4 H         141.9006  143.8127  160.2217 H       1  UNL1        0.1550
      5 C         140.8726  141.9117  160.0628 C.ar    1  UNL1        0.0505
      6 C         141.0198  141.3591  158.6760 C.ar    1  UNL1        0.0147
      7 C         140.8750  139.8855  158.4365 C.ar    1  UNL1        0.0014
      8 C         140.5831  138.9643  159.5838 C.ar    1  UNL1        0.0046
      9 C         140.4359  139.5168  160.9705 C.ar    1  UNL1        0.0546
     10 C         140.5806  140.9905  161.2100 C.ar    1  UNL1        0.0192
     11 C         140.1439  138.5956  162.1178 C.2     1  UNL1        0.2459
     12 O         140.8053  137.2510  162.1871 O.2     1  UNL1       -0.2701
     13 N         139.1907  139.0190  163.1958 N.am    1  UNL1       -0.3009
     14 H         138.7566  139.9015  163.1503 H       1  UNL1        0.1497
     15 C         138.8987  138.0979  164.3430 C.3     1  UNL1        0.0896
     16 C         138.6561  138.6593  165.7126 C.3     1  UNL1        0.0196
     17 C         139.0348  139.6026  166.8157 C.3     1  UNL1        0.0017
     18 C         137.8573  138.6884  166.9819 C.3     1  UNL1        0.0017
     19 C         139.9611  145.6815  160.9038 C.3     1  UNL1        0.2897
     20 O         140.4095  146.1830  162.2445 O.3     1  UNL1       -0.4656
     21 C         141.1041  145.2565  163.1979 C.ar    1  UNL1        0.1393
     22 C         142.6018  145.1742  163.2069 C.ar    1  UNL1        0.0370
     23 C         143.2963  144.2477  164.1603 C.ar    1  UNL1        0.0063
     24 C         142.4932  143.4034  165.1048 C.ar    1  UNL1        0.0392
     25 C         140.9955  143.4856  165.0959 C.ar    1  UNL1        0.0063
     26 C         140.3009  144.4122  164.1425 C.ar    1  UNL1        0.0370
     27 C         143.1878  142.4768  166.0583 C.2     1  UNL1        0.1961
     28 O         143.9103  143.0309  167.2503 O.2     1  UNL1       -0.2866
     29 C         143.1599  140.9962  165.8197 C.ar    1  UNL1        0.0460
     30 C         143.5145  140.4472  164.4696 C.ar    1  UNL1        0.0151
     31 C         143.4865  138.9665  164.2310 C.ar    1  UNL1        0.0578
     32 CL        143.8411  138.4176  162.8809 Cl      1  UNL1       -0.0822
     33 C         143.1040  138.0349  165.3426 C.ar    1  UNL1        0.0119
     34 C         142.7495  138.5838  166.6928 C.ar    1  UNL1        0.0077
     35 C         142.7774  140.0644  166.9313 C.ar    1  UNL1        0.0377
     36 BR        142.4228  140.6134  168.2815 Br      1  UNL1       -0.0489
@<TRIPOS>BOND
     1     1     2    2
     2     2    19    1
     3    19    20    1
     4    20    21    1
     5    21    22   ar
     6    22    23   ar
     7    23    24   ar
     8    24    27    1
     9    27    28    2
    10    27    29    1
    11    29    30   ar
    12    30    31   ar
    13    31    32    1
    14    31    33   ar
    15    33    34   ar
    16    34    35   ar
    17    35    36    1
    18    24    25   ar
    19    25    26   ar
    20     2     3   am
    21     3     5    1
    22     5     6   ar
    23     6     7   ar
    24     7     8   ar
    25     8     9   ar
    26     9    11    1
    27    11    12    2
    28    11    13   am
    29    13    15    1
    30    15    16    1
    31    16    17    1
    32    17    18    1
    33     9    10   ar
    34    26    21   ar
    35    10     5   ar
    36    35    29   ar
    37    18    16    1
    38     3     4    1
    39    13    14    1
@<TRIPOS>MOLECULE
*****
 36 39 0 0 0
SMALL
GASTEIGER

@<TRIPOS>ATOM
      1 O         139.8340  143.8394  159.0866 O.2     1  UNL1       -0.2707
      2 C         140.6105  144.8492  159.8786 C.2     1  UNL1        0.2707
      3 N         142.0231  144.5554  160.2888 N.am    1  UNL1       -0.2809
      4 H         142.5327  145.2182  160.8087 H       1  UNL1        0.1550
      5 C         142.6592  143.2518  159.9069 C.ar    1  UNL1        0.0505
      6 C         143.4744  143.1543  158.6514 C.ar    1  UNL1        0.0147
      7 C         144.1105  141.8507  158.2695 C.ar    1  UNL1        0.0014
      8 C         143.9315  140.6445  159.1430 C.ar    1  UNL1        0.0046
      9 C         143.1163  140.7419  160.3984 C.ar    1  UNL1        0.0546
     10 C         142.4801  142.0455  160.7803 C.ar    1  UNL1        0.0192
     11 C         142.9373  139.5356  161.2718 C.2     1  UNL1        0.2459
     12 O         144.1070  138.9747  162.0249 O.2     1  UNL1       -0.2701
     13 N         141.5886  138.8903  161.3922 N.am    1  UNL1       -0.3009
     14 H         140.8209  139.2585  160.8979 H       1  UNL1        0.1497
     15 C         141.4096  137.6841  162.2656 C.3     1  UNL1        0.0896
     16 C         140.3098  137.6529  163.2851 C.3     1  UNL1        0.0196
     17 C         139.8672  137.6164  164.7179 C.3     1  UNL1        0.0017
     18 C         138.8473  137.6353  163.6182 C.3     1  UNL1        0.0017
     19 C         139.9743  146.1528  160.2605 C.3     1  UNL1        0.2897
     20 O         139.1717  146.2541  161.5237 O.3     1  UNL1       -0.4656
     21 C         139.2661  145.1745  162.5608 C.ar    1  UNL1        0.1393
     22 C         140.4515  145.1173  163.4781 C.ar    1  UNL1        0.0370
     23 C         140.5458  144.0377  164.5152 C.ar    1  UNL1        0.0063
     24 C         139.4547  143.0154  164.6350 C.ar    1  UNL1        0.0392
     25 C         138.2692  143.0727  163.7178 C.ar    1  UNL1        0.0063
     26 C         138.1749  144.1522  162.6807 C.ar    1  UNL1        0.0370
     27 C         139.5490  141.9358  165.6722 C.2     1  UNL1        0.1961
     28 O         138.5878  140.7846  165.6460 O.2     1  UNL1       -0.2866
     29 C         140.6045  142.0075  166.7355 C.ar    1  UNL1        0.0460
     30 C         140.3485  142.7800  167.9956 C.ar    1  UNL1        0.0151
     31 C         141.4041  142.8517  169.0590 C.ar    1  UNL1        0.0578
     32 CL        141.1480  143.6241  170.3190 Cl      1  UNL1       -0.0822
     33 C         142.7156  142.1509  168.8622 C.ar    1  UNL1        0.0119
     34 C         142.9716  141.3784  167.6022 C.ar    1  UNL1        0.0077
     35 C         141.9161  141.3067  166.5389 C.ar    1  UNL1        0.0377
     36 BR        142.1722  140.5343  165.2788 Br      1  UNL1       -0.0489
@<TRIPOS>BOND
     1     1     2    2
     2     2    19    1
     3    19    20    1
     4    20    21    1
     5    21    22   ar
     6    22    23   ar
     7    23    24   ar
     8    24    27    1
     9    27    28    2
    10    27    29    1
    11    29    30   ar
    12    30    31   ar
    13    31    32    1
    14    31    33   ar
    15    33    34   ar
    16    34    35   ar
    17    35    36    1
    18    24    25   ar
    19    25    26   ar
    20     2     3   am
    21     3     5    1
    22     5     6   ar
    23     6     7   ar
    24     7     8   ar
    25     8     9   ar
    26     9    11    1
    27    11    12    2
    28    11    13   am
    29    13    15    1
    30    15    16    1
    31    16    17    1
    32    17    18    1
    33     9    10   ar
    34    26    21   ar
    35    10     5   ar
    36    35    29   ar
    37    18    16    1
    38     3     4    1
    39    13    14    1
@<TRIPOS>MOLECULE
*****
 36 39 0 0 0
SMALL
GASTEIGER

@<TRIPOS>ATOM
      1 O         139.5933  143.9261  159.6387 O.2     1  UNL1       -0.2707
      2 C         140.4813  144.9538  160.2753 C.2     1  UNL1        0.2707
      3 N         141.9696  144.7678  160.2668 N.am    1  UNL1       -0.2809
      4 H         142.5524  145.4423  160.6846 H       1  UNL1        0.1550
      5 C         142.5700  143.5541  159.6215 C.ar    1  UNL1        0.0505
      6 C         143.1050  143.6356  158.2225 C.ar    1  UNL1        0.0147
      7 C         143.7054  142.4219  157.5772 C.ar    1  UNL1        0.0014
      8 C         143.7709  141.1267  158.3309 C.ar    1  UNL1        0.0046
      9 C         143.2359  141.0451  159.7299 C.ar    1  UNL1        0.0546
     10 C         142.6355  142.2589  160.3752 C.ar    1  UNL1        0.0192
     11 C         143.3014  139.7499  160.4836 C.2     1  UNL1        0.2459
     12 O         143.5830  138.4704  159.7530 O.2     1  UNL1       -0.2701
     13 N         143.0852  139.7341  161.9678 N.am    1  UNL1       -0.3009
     14 H         142.9004  140.5738  162.4473 H       1  UNL1        0.1497
     15 C         143.1507  138.4389  162.7215 C.3     1  UNL1        0.0896
     16 C         141.8978  137.8321  163.2802 C.3     1  UNL1        0.0196
     17 C         141.1792  137.1301  164.3941 C.3     1  UNL1        0.0017
     18 C         140.4464  137.4830  163.1338 C.3     1  UNL1        0.0017
     19 C         139.8808  146.1676  160.9206 C.3     1  UNL1        0.2897
     20 O         139.7377  146.2306  162.4124 O.3     1  UNL1       -0.4656
     21 C         140.1833  145.0746  163.2581 C.ar    1  UNL1        0.1393
     22 C         141.6216  144.9549  163.6668 C.ar    1  UNL1        0.0370
     23 C         142.0672  143.7989  164.5125 C.ar    1  UNL1        0.0063
     24 C         141.0745  142.7627  164.9495 C.ar    1  UNL1        0.0392
     25 C         139.6363  142.8825  164.5408 C.ar    1  UNL1        0.0063
     26 C         139.1907  144.0384  163.6951 C.ar    1  UNL1        0.0370
     27 C         141.5202  141.6068  165.7952 C.2     1  UNL1        0.1961
     28 O         142.9171  141.0763  165.6642 O.2     1  UNL1       -0.2866
     29 C         140.5690  140.9813  166.7719 C.ar    1  UNL1        0.0460
     30 C         139.6078  139.9257  166.3117 C.ar    1  UNL1        0.0151
     31 C         138.6565  139.3003  167.2884 C.ar    1  UNL1        0.0578
     32 CL        137.6953  138.2447  166.8282 Cl      1  UNL1       -0.0822
     33 C         138.6665  139.7305  168.7253 C.ar    1  UNL1        0.0119
     34 C         139.6276  140.7861  169.1856 C.ar    1  UNL1        0.0077
     35 C         140.5789  141.4115  168.2089 C.ar    1  UNL1        0.0377
     36 BR        141.5400  142.4672  168.6691 Br      1  UNL1       -0.0489
@<TRIPOS>BOND
     1     1     2    2
     2     2    19    1
     3    19    20    1
     4    20    21    1
     5    21    22   ar
     6    22    23   ar
     7    23    24   ar
     8    24    27    1
     9    27    28    2
    10    27    29    1
    11    29    30   ar
    12    30    31   ar
    13    31    32    1
    14    31    33   ar
    15    33    34   ar
    16    34    35   ar
    17    35    36    1
    18    24    25   ar
    19    25    26   ar
    20     2     3   am
    21     3     5    1
    22     5     6   ar
    23     6     7   ar
    24     7     8   ar
    25     8     9   ar
    26     9    11    1
    27    11    12    2
    28    11    13   am
    29    13    15    1
    30    15    16    1
    31    16    17    1
    32    17    18    1
    33     9    10   ar
    34    26    21   ar
    35    10     5   ar
    36    35    29   ar
    37    18    16    1
    38     3     4    1
    39    13    14    1
@<TRIPOS>MOLECULE
*****
 36 39 0 0 0
SMALL
GASTEIGER

@<TRIPOS>ATOM
      1 O         139.3557  144.2290  160.2471 O.2     1  UNL1       -0.2707
      2 C         140.3078  145.2667  160.7635 C.2     1  UNL1        0.2707
      3 N         141.3515  145.8455  159.8549 N.am    1  UNL1       -0.2809
      4 H         141.9763  146.5266  160.1939 H       1  UNL1        0.1550
      5 C         141.4431  145.3866  158.4298 C.ar    1  UNL1        0.0505
      6 C         140.4835  145.9191  157.4072 C.ar    1  UNL1        0.0147
      7 C         140.5751  145.4602  155.9821 C.ar    1  UNL1        0.0014
      8 C         141.6263  144.4687  155.5795 C.ar    1  UNL1        0.0046
      9 C         142.5859  143.9362  156.6020 C.ar    1  UNL1        0.0546
     10 C         142.4943  144.3952  158.0272 C.ar    1  UNL1        0.0192
     11 C         143.6371  142.9448  156.1995 C.2     1  UNL1        0.2459
     12 O         143.5818  142.3013  154.8456 O.2     1  UNL1       -0.2701
     13 N         144.7434  142.5969  157.1507 N.am    1  UNL1       -0.3009
     14 H         144.7797  143.0193  158.0392 H       1  UNL1        0.1497
     15 C         145.7946  141.6055  156.7481 C.3     1  UNL1        0.0896
     16 C         146.9525  142.0426  155.9006 C.3     1  UNL1        0.0196
     17 C         148.3733  141.8679  155.4525 C.3     1  UNL1        0.0017
     18 C         147.5372  142.9743  154.8808 C.3     1  UNL1        0.0017
     19 C         140.2161  145.7256  162.1887 C.3     1  UNL1        0.2897
     20 O         139.0302  145.3448  163.0245 O.3     1  UNL1       -0.4656
     21 C         139.0544  144.0783  163.8279 C.ar    1  UNL1        0.1393
     22 C         140.1157  143.8696  164.8671 C.ar    1  UNL1        0.0370
     23 C         140.1398  142.6031  165.6705 C.ar    1  UNL1        0.0063
     24 C         139.1027  141.5454  165.4347 C.ar    1  UNL1        0.0392
     25 C         138.0414  141.7542  164.3955 C.ar    1  UNL1        0.0063
     26 C         138.0172  143.0206  163.5921 C.ar    1  UNL1        0.0370
     27 C         139.1269  140.2789  166.2381 C.2     1  UNL1        0.1961
     28 O         138.0752  139.2319  166.0196 O.2     1  UNL1       -0.2866
     29 C         140.2027  140.0595  167.2601 C.ar    1  UNL1        0.0460
     30 C         139.9527  140.4045  168.6983 C.ar    1  UNL1        0.0151
     31 C         141.0286  140.1851  169.7202 C.ar    1  UNL1        0.0578
     32 CL        140.7785  140.5301  171.1584 Cl      1  UNL1       -0.0822
     33 C         142.3545  139.6206  169.3040 C.ar    1  UNL1        0.0119
     34 C         142.6045  139.2755  167.8658 C.ar    1  UNL1        0.0077
     35 C         141.5287  139.4950  166.8438 C.ar    1  UNL1        0.0377
     36 BR        141.7788  139.1499  165.4056 Br      1  UNL1       -0.0489
@<TRIPOS>BOND
     1     1     2    2
     2     2    19    1
     3    19    20    1
     4    20    21    1
     5    21    22   ar
     6    22    23   ar
     7    23    24   ar
     8    24    27    1
     9    27    28    2
    10    27    29    1
    11    29    30   ar
    12    30    31   ar
    13    31    32    1
    14    31    33   ar
    15    33    34   ar
    16    34    35   ar
    17    35    36    1
    18    24    25   ar
    19    25    26   ar
    20     2     3   am
    21     3     5    1
    22     5     6   ar
    23     6     7   ar
    24     7     8   ar
    25     8     9   ar
    26     9    11    1
    27    11    12    2
    28    11    13   am
    29    13    15    1
    30    15    16    1
    31    16    17    1
    32    17    18    1
    33     9    10   ar
    34    26    21   ar
    35    10     5   ar
    36    35    29   ar
    37    18    16    1
    38     3     4    1
    39    13    14    1
@<TRIPOS>MOLECULE
*****
 36 39 0 0 0
SMALL
GASTEIGER

@<TRIPOS>ATOM
      1 O         138.1402  143.4211  161.0291 O.2     1  UNL1       -0.2707
      2 C         139.5312  143.8852  160.7136 C.2     1  UNL1        0.2707
      3 N         140.5661  142.8987  160.2600 N.am    1  UNL1       -0.2809
      4 H         141.4792  143.2033  160.0529 H       1  UNL1        0.1550
      5 C         140.2100  141.4482  160.1219 C.ar    1  UNL1        0.0505
      6 C         139.8472  140.8896  158.7778 C.ar    1  UNL1        0.0147
      7 C         139.4910  139.4391  158.6397 C.ar    1  UNL1        0.0014
      8 C         139.4976  138.5471  159.8457 C.ar    1  UNL1        0.0046
      9 C         139.8603  139.1056  161.1897 C.ar    1  UNL1        0.0546
     10 C         140.2165  140.5562  161.3278 C.ar    1  UNL1        0.0192
     11 C         139.8669  138.2136  162.3956 C.2     1  UNL1        0.2459
     12 O         140.8720  137.1052  162.5032 O.2     1  UNL1       -0.2701
     13 N         138.8685  138.4299  163.4939 N.am    1  UNL1       -0.3009
     14 H         138.2089  139.1573  163.4233 H       1  UNL1        0.1497
     15 C         138.8751  137.5379  164.6999 C.3     1  UNL1        0.0896
     16 C         138.2813  138.0178  165.9910 C.3     1  UNL1        0.0196
     17 C         138.1392  139.0809  167.0396 C.3     1  UNL1        0.0017
     18 C         137.3950  137.7860  167.1787 C.3     1  UNL1        0.0017
     19 C         139.8874  145.3358  160.8517 C.3     1  UNL1        0.2897
     20 O         140.9779  145.7540  161.7928 O.3     1  UNL1       -0.4656
     21 C         141.6336  144.7376  162.6801 C.ar    1  UNL1        0.1393
     22 C         140.8832  144.1637  163.8452 C.ar    1  UNL1        0.0370
     23 C         141.5389  143.1474  164.7324 C.ar    1  UNL1        0.0063
     24 C         142.9449  142.7050  164.4545 C.ar    1  UNL1        0.0392
     25 C         143.6954  143.2789  163.2894 C.ar    1  UNL1        0.0063
     26 C         143.0397  144.2952  162.4022 C.ar    1  UNL1        0.0370
     27 C         143.6006  141.6887  165.3418 C.2     1  UNL1        0.1961
     28 O         144.8382  140.9775  164.8806 O.2     1  UNL1       -0.2866
     29 C         143.0187  141.3835  166.6902 C.ar    1  UNL1        0.0460
     30 C         143.2567  142.3184  167.8388 C.ar    1  UNL1        0.0151
     31 C         142.6747  142.0132  169.1873 C.ar    1  UNL1        0.0578
     32 CL        142.9127  142.9481  170.3359 Cl      1  UNL1       -0.0822
     33 C         141.8548  140.7731  169.3870 C.ar    1  UNL1        0.0119
     34 C         141.6168  139.8382  168.2384 C.ar    1  UNL1        0.0077
     35 C         142.1987  140.1434  166.8900 C.ar    1  UNL1        0.0377
     36 BR        141.9608  139.2085  165.7414 Br      1  UNL1       -0.0489
@<TRIPOS>BOND
     1     1     2    2
     2     2    19    1
     3    19    20    1
     4    20    21    1
     5    21    22   ar
     6    22    23   ar
     7    23    24   ar
     8    24    27    1
     9    27    28    2
    10    27    29    1
    11    29    30   ar
    12    30    31   ar
    13    31    32    1
    14    31    33   ar
    15    33    34   ar
    16    34    35   ar
    17    35    36    1
    18    24    25   ar
    19    25    26   ar
    20     2     3   am
    21     3     5    1
    22     5     6   ar
    23     6     7   ar
    24     7     8   ar
    25     8     9   ar
    26     9    11    1
    27    11    12    2
    28    11    13   am
    29    13    15    1
    30    15    16    1
    31    16    17    1
    32    17    18    1
    33     9    10   ar
    34    26    21   ar
    35    10     5   ar
    36    35    29   ar
    37    18    16    1
    38     3     4    1
    39    13    14    1
@<TRIPOS>MOLECULE
*****
 36 39 0 0 0
SMALL
GASTEIGER

@<TRIPOS>ATOM
      1 O         140.0173  140.2592  158.2690 O.2     1  UNL1       -0.2707
      2 C         141.5087  140.1850  158.1267 C.2     1  UNL1        0.2707
      3 N         142.3273  141.4417  158.1451 N.am    1  UNL1       -0.2809
      4 H         143.3062  141.3929  158.0517 H       1  UNL1        0.1550
      5 C         141.6546  142.7727  158.3058 C.ar    1  UNL1        0.0505
      6 C         141.2744  143.5720  157.0948 C.ar    1  UNL1        0.0147
      7 C         140.6017  144.9030  157.2555 C.ar    1  UNL1        0.0014
      8 C         140.3092  145.4347  158.6273 C.ar    1  UNL1        0.0046
      9 C         140.6894  144.6355  159.8383 C.ar    1  UNL1        0.0546
     10 C         141.3621  143.3044  159.6776 C.ar    1  UNL1        0.0192
     11 C         140.3969  145.1672  161.2100 C.2     1  UNL1        0.2459
     12 O         139.4700  146.3344  161.3801 O.2     1  UNL1       -0.2701
     13 N         141.0312  144.5320  162.4117 N.am    1  UNL1       -0.3009
     14 H         141.6396  143.7660  162.3000 H       1  UNL1        0.1497
     15 C         140.7388  145.0637  163.7834 C.3     1  UNL1        0.0896
     16 C         139.4190  144.7737  164.4345 C.3     1  UNL1        0.0196
     17 C         138.0545  144.1528  164.3847 C.3     1  UNL1        0.0017
     18 C         138.4975  144.8925  165.6121 C.3     1  UNL1        0.0017
     19 C         142.1814  138.8539  157.9660 C.3     1  UNL1        0.2897
     20 O         143.3765  138.5114  158.8051 O.3     1  UNL1       -0.4656
     21 C         143.3139  138.6617  160.2963 C.ar    1  UNL1        0.1393
     22 C         144.1933  139.6616  160.9868 C.ar    1  UNL1        0.0370
     23 C         144.1307  139.8119  162.4779 C.ar    1  UNL1        0.0063
     24 C         143.1887  138.9623  163.2785 C.ar    1  UNL1        0.0392
     25 C         142.3094  137.9624  162.5880 C.ar    1  UNL1        0.0063
     26 C         142.3720  137.8121  161.0968 C.ar    1  UNL1        0.0370
     27 C         143.1261  139.1126  164.7697 C.2     1  UNL1        0.1961
     28 O         144.2183  138.5452  165.6272 O.2     1  UNL1       -0.2866
     29 C         141.9715  139.8304  165.4033 C.ar    1  UNL1        0.0460
     30 C         140.6941  139.0956  165.6834 C.ar    1  UNL1        0.0151
     31 C         139.5394  139.8134  166.3171 C.ar    1  UNL1        0.0578
     32 CL        138.2620  139.0786  166.5971 Cl      1  UNL1       -0.0822
     33 C         139.6621  141.2659  166.6706 C.ar    1  UNL1        0.0119
     34 C         140.9395  142.0007  166.3906 C.ar    1  UNL1        0.0077
     35 C         142.0941  141.2830  165.7569 C.ar    1  UNL1        0.0377
     36 BR        143.3715  142.0177  165.4769 Br      1  UNL1       -0.0489
@<TRIPOS>BOND
     1     1     2    2
     2     2    19    1
     3    19    20    1
     4    20    21    1
     5    21    22   ar
     6    22    23   ar
     7    23    24   ar
     8    24    27    1
     9    27    28    2
    10    27    29    1
    11    29    30   ar
    12    30    31   ar
    13    31    32    1
    14    31    33   ar
    15    33    34   ar
    16    34    35   ar
    17    35    36    1
    18    24    25   ar
    19    25    26   ar
    20     2     3   am
    21     3     5    1
    22     5     6   ar
    23     6     7   ar
    24     7     8   ar
    25     8     9   ar
    26     9    11    1
    27    11    12    2
    28    11    13   am
    29    13    15    1
    30    15    16    1
    31    16    17    1
    32    17    18    1
    33     9    10   ar
    34    26    21   ar
    35    10     5   ar
    36    35    29   ar
    37    18    16    1
    38     3     4    1
    39    13    14    1
@<TRIPOS>MOLECULE
*****
 36 39 0 0 0
SMALL
GASTEIGER

@<TRIPOS>ATOM
      1 O         139.5372  143.9459  159.7503 O.2     1  UNL1       -0.2707
      2 C         140.3617  145.0221  160.3923 C.2     1  UNL1        0.2707
      3 N         141.8565  144.9021  160.4259 N.am    1  UNL1       -0.2809
      4 H         142.3976  145.6084  160.8473 H       1  UNL1        0.1550
      5 C         142.5267  143.7060  159.8176 C.ar    1  UNL1        0.0505
      6 C         142.9216  143.7227  158.3705 C.ar    1  UNL1        0.0147
      7 C         143.5919  142.5266  157.7622 C.ar    1  UNL1        0.0014
      8 C         143.8673  141.3139  158.6008 C.ar    1  UNL1        0.0046
      9 C         143.4725  141.2972  160.0478 C.ar    1  UNL1        0.0546
     10 C         142.8022  142.4933  160.6562 C.ar    1  UNL1        0.0192
     11 C         143.7479  140.0844  160.8864 C.2     1  UNL1        0.2459
     12 O         144.2879  138.8385  160.2489 O.2     1  UNL1       -0.2701
     13 N         143.4835  140.1174  162.3625 N.am    1  UNL1       -0.3009
     14 H         143.1291  140.9351  162.7809 H       1  UNL1        0.1497
     15 C         143.7589  138.9046  163.2012 C.3     1  UNL1        0.0896
     16 C         143.6202  138.9771  164.6929 C.3     1  UNL1        0.0196
     17 C         143.3146  139.7646  165.9324 C.3     1  UNL1        0.0017
     18 C         143.6855  138.3150  166.0373 C.3     1  UNL1        0.0017
     19 C         139.6913  146.2182  161.0006 C.3     1  UNL1        0.2897
     20 O         139.2313  146.1751  162.4277 O.3     1  UNL1       -0.4656
     21 C         139.4024  144.9214  163.2334 C.ar    1  UNL1        0.1393
     22 C         140.7329  144.6000  163.8469 C.ar    1  UNL1        0.0370
     23 C         140.9040  143.3464  164.6526 C.ar    1  UNL1        0.0063
     24 C         139.7446  142.4142  164.8447 C.ar    1  UNL1        0.0392
     25 C         138.4141  142.7356  164.2311 C.ar    1  UNL1        0.0063
     26 C         138.2430  143.9892  163.4255 C.ar    1  UNL1        0.0370
     27 C         139.9157  141.1605  165.6504 C.2     1  UNL1        0.1961
     28 O         140.0885  139.8414  164.9575 O.2     1  UNL1       -0.2866
     29 C         139.9141  141.2260  167.1489 C.ar    1  UNL1        0.0460
     30 C         140.6712  142.3128  167.8530 C.ar    1  UNL1        0.0151
     31 C         140.6696  142.3782  169.3516 C.ar    1  UNL1        0.0578
     32 CL        141.4267  143.4650  170.0557 Cl      1  UNL1       -0.0822
     33 C         139.9109  141.3569  170.1461 C.ar    1  UNL1        0.0119
     34 C         139.1538  140.2701  169.4420 C.ar    1  UNL1        0.0077
     35 C         139.1554  140.2046  167.9435 C.ar    1  UNL1        0.0377
     36 BR        138.3983  139.1179  167.2394 Br      1  UNL1       -0.0489
@<TRIPOS>BOND
     1     1     2    2
     2     2    19    1
     3    19    20    1
     4    20    21    1
     5    21    22   ar
     6    22    23   ar
     7    23    24   ar
     8    24    27    1
     9    27    28    2
    10    27    29    1
    11    29    30   ar
    12    30    31   ar
    13    31    32    1
    14    31    33   ar
    15    33    34   ar
    16    34    35   ar
    17    35    36    1
    18    24    25   ar
    19    25    26   ar
    20     2     3   am
    21     3     5    1
    22     5     6   ar
    23     6     7   ar
    24     7     8   ar
    25     8     9   ar
    26     9    11    1
    27    11    12    2
    28    11    13   am
    29    13    15    1
    30    15    16    1
    31    16    17    1
    32    17    18    1
    33     9    10   ar
    34    26    21   ar
    35    10     5   ar
    36    35    29   ar
    37    18    16    1
    38     3     4    1
    39    13    14    1
@<TRIPOS>MOLECULE
*****
 36 39 0 0 0
SMALL
GASTEIGER

@<TRIPOS>ATOM
      1 O         141.6518  140.6777  158.0960 O.2     1  UNL1       -0.2707
      2 C         140.1733  140.4394  158.1809 C.2     1  UNL1        0.2707
      3 N         139.2516  141.5659  158.5433 N.am    1  UNL1       -0.2809
      4 H         138.2812  141.4095  158.5990 H       1  UNL1        0.1550
      5 C         139.8085  142.9308  158.8207 C.ar    1  UNL1        0.0505
      6 C         139.7827  143.9829  157.7517 C.ar    1  UNL1        0.0147
      7 C         140.3395  145.3477  158.0291 C.ar    1  UNL1        0.0014
      8 C         140.9222  145.6606  159.3755 C.ar    1  UNL1        0.0046
      9 C         140.9480  144.6087  160.4444 C.ar    1  UNL1        0.0546
     10 C         140.3911  143.2437  160.1670 C.ar    1  UNL1        0.0192
     11 C         141.5306  144.9216  161.7907 C.2     1  UNL1        0.2459
     12 O         140.6533  145.4637  162.8800 O.2     1  UNL1       -0.2701
     13 N         142.9905  144.6924  162.0478 N.am    1  UNL1       -0.3009
     14 H         143.5663  144.3367  161.3329 H       1  UNL1        0.1497
     15 C         143.5732  145.0053  163.3941 C.3     1  UNL1        0.0896
     16 C         144.1065  143.8995  164.2559 C.3     1  UNL1        0.0196
     17 C         144.3208  143.2989  165.6136 C.3     1  UNL1        0.0017
     18 C         144.8159  142.5848  164.3909 C.3     1  UNL1        0.0017
     19 C         139.6165  139.0744  157.9035 C.3     1  UNL1        0.2897
     20 O         139.6730  138.0122  158.9610 O.3     1  UNL1       -0.4656
     21 C         139.4635  138.3758  160.4012 C.ar    1  UNL1        0.1393
     22 C         140.5606  138.1501  161.3989 C.ar    1  UNL1        0.0370
     23 C         140.3511  138.5136  162.8390 C.ar    1  UNL1        0.0063
     24 C         139.0445  139.1029  163.2814 C.ar    1  UNL1        0.0392
     25 C         137.9475  139.3286  162.2837 C.ar    1  UNL1        0.0063
     26 C         138.1570  138.9650  160.8436 C.ar    1  UNL1        0.0370
     27 C         138.8350  139.4665  164.7215 C.2     1  UNL1        0.1961
     28 O         138.1901  138.4865  165.6563 O.2     1  UNL1       -0.2866
     29 C         139.2705  140.8100  165.2269 C.ar    1  UNL1        0.0460
     30 C         138.4812  142.0358  164.8743 C.ar    1  UNL1        0.0151
     31 C         138.9167  143.3793  165.3796 C.ar    1  UNL1        0.0578
     32 CL        138.1274  144.6052  165.0270 Cl      1  UNL1       -0.0822
     33 C         140.1414  143.4970  166.2376 C.ar    1  UNL1        0.0119
     34 C         140.9307  142.2712  166.5903 C.ar    1  UNL1        0.0077
     35 C         140.4953  140.9277  166.0849 C.ar    1  UNL1        0.0377
     36 BR        141.2846  139.7018  166.4375 Br      1  UNL1       -0.0489
@<TRIPOS>BOND
     1     1     2    2
     2     2    19    1
     3    19    20    1
     4    20    21    1
     5    21    22   ar
     6    22    23   ar
     7    23    24   ar
     8    24    27    1
     9    27    28    2
    10    27    29    1
    11    29    30   ar
    12    30    31   ar
    13    31    32    1
    14    31    33   ar
    15    33    34   ar
    16    34    35   ar
    17    35    36    1
    18    24    25   ar
    19    25    26   ar
    20     2     3   am
    21     3     5    1
    22     5     6   ar
    23     6     7   ar
    24     7     8   ar
    25     8     9   ar
    26     9    11    1
    27    11    12    2
    28    11    13   am
    29    13    15    1
    30    15    16    1
    31    16    17    1
    32    17    18    1
    33     9    10   ar
    34    26    21   ar
    35    10     5   ar
    36    35    29   ar
    37    18    16    1
    38     3     4    1
    39    13    14    1
