@<TRIPOS>MOLECULE
*****
 34 38 0 0 0
SMALL
GASTEIGER

@<TRIPOS>ATOM
      1 N         138.3117  139.9998  159.8632 N.am    1  UNL1       -0.2437
      2 C         138.9183  138.6280  159.8414 C.3     1  UNL1        0.1001
      3 C         139.1000  138.1789  161.2610 C.3     1  UNL1        0.0306
      4 C         138.6057  139.2731  162.1603 C.3     1  UNL1        0.0737
      5 C         138.0773  140.4477  162.9290 C.3     1  UNL1        0.0260
      6 C         138.0713  140.4212  164.4287 C.3     1  UNL1        0.0727
      7 N         138.5936  139.2200  165.1597 N.3     1  UNL1       -0.2703
      8 C         139.1219  138.0453  164.3910 C.3     1  UNL1        0.0727
      9 C         139.1280  138.0719  162.8913 C.3     1  UNL1        0.0260
     10 C         138.1185  140.3984  161.2964 C.2     1  UNL1        0.2296
     11 O         137.5397  141.6948  161.7805 O.2     1  UNL1       -0.2745
     12 C         136.5321  141.1960  156.5238 C.ar    1  UNL1        0.3212
     13 N         137.2568  142.4829  156.2617 N.ar    1  UNL1       -0.1926
     14 C         138.3332  142.9420  157.2001 C.ar    1  UNL1        0.1065
     15 C         138.6848  142.1143  158.4006 C.ar    1  UNL1        0.0556
     16 C         137.9601  140.8275  158.6627 C.ar    1  UNL1        0.1436
     17 N         136.8837  140.3683  157.7243 N.ar    1  UNL1       -0.1789
     18 C         134.0932  140.3994  156.1145 C.3     1  UNL1        0.2559
     19 O         135.4557  140.7369  155.5855 O.3     1  UNL1       -0.4426
     20 C         138.5875  139.1935  166.6595 C.3     1  UNL1        0.1063
     21 C         139.7608  139.7310  167.4239 C.3     1  UNL1        0.1483
     22 O         139.6945  139.8438  168.9182 O.3     1  UNL1       -0.3786
     23 H         140.5296  140.2068  169.2524 H       1  UNL1        0.2108
     24 C         141.0006  140.1556  166.6940 C.ar    1  UNL1        0.0015
     25 C         142.0626  139.1471  166.3699 C.ar    1  UNL1       -0.0020
     26 C         143.3024  139.5717  165.6400 C.ar    1  UNL1        0.0060
     27 C         143.4801  141.0048  165.2343 C.ar    1  UNL1        0.0748
     28 C         142.4181  142.0133  165.5584 C.ar    1  UNL1        0.0233
     29 C         141.1784  141.5887  166.2883 C.ar    1  UNL1       -0.0238
     30 C         140.1163  142.5972  166.6124 C.3     1  UNL1        0.0306
     31 C         142.8683  143.3449  165.0350 C.3     1  UNL1        0.2352
     32 O         144.2085  143.1595  164.3874 O.3     1  UNL1       -0.4404
     33 C         144.5866  141.7132  164.5106 C.2     1  UNL1        0.3413
     34 O         145.8495  141.0854  163.9997 O.2     1  UNL1       -0.2449
@<TRIPOS>BOND
     1    18    19    1
     2    19    12    1
     3    12    13   ar
     4    13    14   ar
     5    14    15   ar
     6    15    16   ar
     7    16     1    1
     8     1     2    1
     9     2     3    1
    10     3     4    1
    11     4     5    1
    12     5     6    1
    13     6     7    1
    14     7    20    1
    15    20    21    1
    16    21    22    1
    17    21    24    1
    18    24    25   ar
    19    25    26   ar
    20    26    27   ar
    21    27    28   ar
    22    28    29   ar
    23    29    30    1
    24    28    31    1
    25    31    32    1
    26    32    33    1
    27    33    34    2
    28     7     8    1
    29     8     9    1
    30     4    10    1
    31    10    11    2
    32    16    17   ar
    33    17    12   ar
    34    10     1   am
    35     9     4    1
    36    29    24   ar
    37    33    27    1
    38    22    23    1
@<TRIPOS>MOLECULE
*****
 34 38 0 0 0
SMALL
GASTEIGER

@<TRIPOS>ATOM
      1 N         142.8317  138.5324  159.7115 N.am    1  UNL1       -0.2437
      2 C         143.9448  138.5653  160.7166 C.3     1  UNL1        0.1001
      3 C         143.3456  138.3729  162.0782 C.3     1  UNL1        0.0306
      4 C         141.8623  138.2210  161.9148 C.3     1  UNL1        0.0737
      5 C         140.4026  138.0860  161.5969 C.3     1  UNL1        0.0260
      6 C         139.4110  137.8729  162.7020 C.3     1  UNL1        0.0727
      7 N         139.8791  137.7949  164.1250 N.3     1  UNL1       -0.2703
      8 C         141.3388  137.9299  164.4428 C.3     1  UNL1        0.0727
      9 C         142.3304  138.1430  163.3377 C.3     1  UNL1        0.0260
     10 C         141.5447  138.3196  160.4521 C.2     1  UNL1        0.2296
     11 O         140.1797  138.2225  159.8377 O.2     1  UNL1       -0.2745
     12 C         143.3127  137.6263  155.8778 C.ar    1  UNL1        0.3212
     13 N         143.2758  138.9914  155.2571 N.ar    1  UNL1       -0.1926
     14 C         143.0908  140.2034  156.1213 C.ar    1  UNL1        0.1065
     15 C         142.9428  140.0504  157.6061 C.ar    1  UNL1        0.0556
     16 C         142.9797  138.6854  158.2267 C.ar    1  UNL1        0.1436
     17 N         143.1647  137.4733  157.3626 N.ar    1  UNL1       -0.1789
     18 C         143.6461  135.0605  155.6425 C.3     1  UNL1        0.2559
     19 O         143.4976  136.4143  155.0137 O.3     1  UNL1       -0.4426
     20 C         138.8874  137.5819  165.2302 C.3     1  UNL1        0.1063
     21 C         138.1654  138.7538  165.8262 C.3     1  UNL1        0.1483
     22 O         137.2943  138.5635  167.0324 O.3     1  UNL1       -0.3786
     23 H         136.9048  139.4145  167.2874 H       1  UNL1        0.2108
     24 C         138.3145  140.1160  165.2159 C.ar    1  UNL1        0.0015
     25 C         137.4703  140.5071  164.0394 C.ar    1  UNL1       -0.0020
     26 C         137.6193  141.8692  163.4291 C.ar    1  UNL1        0.0060
     27 C         138.6125  142.8402  163.9955 C.ar    1  UNL1        0.0748
     28 C         139.4567  142.4490  165.1721 C.ar    1  UNL1        0.0233
     29 C         139.3076  141.0869  165.7823 C.ar    1  UNL1       -0.0238
     30 C         140.1518  140.6957  166.9589 C.3     1  UNL1        0.0306
     31 C         140.3447  143.6092  165.5116 C.3     1  UNL1        0.2352
     32 O         140.0494  144.7175  164.5449 O.3     1  UNL1       -0.4404
     33 C         138.9789  144.2422  163.6079 C.2     1  UNL1        0.3413
     34 O         138.3798  145.0304  162.4811 O.2     1  UNL1       -0.2449
@<TRIPOS>BOND
     1    18    19    1
     2    19    12    1
     3    12    13   ar
     4    13    14   ar
     5    14    15   ar
     6    15    16   ar
     7    16     1    1
     8     1     2    1
     9     2     3    1
    10     3     4    1
    11     4     5    1
    12     5     6    1
    13     6     7    1
    14     7    20    1
    15    20    21    1
    16    21    22    1
    17    21    24    1
    18    24    25   ar
    19    25    26   ar
    20    26    27   ar
    21    27    28   ar
    22    28    29   ar
    23    29    30    1
    24    28    31    1
    25    31    32    1
    26    32    33    1
    27    33    34    2
    28     7     8    1
    29     8     9    1
    30     4    10    1
    31    10    11    2
    32    16    17   ar
    33    17    12   ar
    34    10     1   am
    35     9     4    1
    36    29    24   ar
    37    33    27    1
    38    22    23    1
@<TRIPOS>MOLECULE
*****
 34 38 0 0 0
SMALL
GASTEIGER

@<TRIPOS>ATOM
      1 N         139.9790  144.9495  160.4379 N.am    1  UNL1       -0.2437
      2 C         139.7249  145.8705  161.5943 C.3     1  UNL1        0.1001
      3 C         139.3119  145.0354  162.7699 C.3     1  UNL1        0.0306
      4 C         139.3108  143.5983  162.3401 C.3     1  UNL1        0.0737
      5 C         139.3551  142.2120  161.7689 C.3     1  UNL1        0.0260
      6 C         139.0034  141.0348  162.6293 C.3     1  UNL1        0.0727
      7 N         138.6075  141.2437  164.0609 N.3     1  UNL1       -0.2703
      8 C         138.5632  142.6299  164.6321 C.3     1  UNL1        0.0727
      9 C         138.9149  143.8072  163.7718 C.3     1  UNL1        0.0260
     10 C         139.7231  143.5452  160.8989 C.2     1  UNL1        0.2296
     11 O         139.8561  142.3055  160.0650 O.2     1  UNL1       -0.2745
     12 C         139.9276  146.5815  156.8208 C.ar    1  UNL1        0.3212
     13 N         141.2807  146.1829  156.3107 N.ar    1  UNL1       -0.1926
     14 C         142.1998  145.3732  157.1763 C.ar    1  UNL1        0.1065
     15 C         141.7660  144.9621  158.5521 C.ar    1  UNL1        0.0556
     16 C         140.4129  145.3607  159.0622 C.ar    1  UNL1        0.1436
     17 N         139.4937  146.1704  158.1965 N.ar    1  UNL1       -0.1789
     18 C         139.5651  148.2017  154.8223 C.3     1  UNL1        0.2559
     19 O         139.0083  147.3912  155.9551 O.3     1  UNL1       -0.4426
     20 C         138.2558  140.0663  164.9213 C.3     1  UNL1        0.1063
     21 C         139.3035  139.4290  165.7850 C.3     1  UNL1        0.1483
     22 O         139.9629  138.1548  165.3474 O.3     1  UNL1       -0.3786
     23 H         140.6105  137.8800  166.0152 H       1  UNL1        0.2108
     24 C         139.6919  140.0660  167.0864 C.ar    1  UNL1        0.0015
     25 C         138.8736  139.8146  168.3181 C.ar    1  UNL1       -0.0020
     26 C         139.2619  140.4514  169.6194 C.ar    1  UNL1        0.0060
     27 C         140.4686  141.3397  169.6891 C.ar    1  UNL1        0.0748
     28 C         141.2869  141.5911  168.4573 C.ar    1  UNL1        0.0233
     29 C         140.8986  140.9542  167.1560 C.ar    1  UNL1       -0.0238
     30 C         141.7169  141.2056  165.9243 C.3     1  UNL1        0.0306
     31 C         142.4156  142.5062  168.8295 C.3     1  UNL1        0.2352
     32 O         142.2949  142.8205  170.2913 O.3     1  UNL1       -0.4404
     33 C         141.0916  142.0995  170.8225 C.2     1  UNL1        0.3413
     34 O         140.5979  142.1325  172.2385 O.2     1  UNL1       -0.2449
@<TRIPOS>BOND
     1    18    19    1
     2    19    12    1
     3    12    13   ar
     4    13    14   ar
     5    14    15   ar
     6    15    16   ar
     7    16     1    1
     8     1     2    1
     9     2     3    1
    10     3     4    1
    11     4     5    1
    12     5     6    1
    13     6     7    1
    14     7    20    1
    15    20    21    1
    16    21    22    1
    17    21    24    1
    18    24    25   ar
    19    25    26   ar
    20    26    27   ar
    21    27    28   ar
    22    28    29   ar
    23    29    30    1
    24    28    31    1
    25    31    32    1
    26    32    33    1
    27    33    34    2
    28     7     8    1
    29     8     9    1
    30     4    10    1
    31    10    11    2
    32    16    17   ar
    33    17    12   ar
    34    10     1   am
    35     9     4    1
    36    29    24   ar
    37    33    27    1
    38    22    23    1
@<TRIPOS>MOLECULE
*****
 34 38 0 0 0
SMALL
GASTEIGER

@<TRIPOS>ATOM
      1 N         142.6470  140.1993  167.5193 N.am    1  UNL1       -0.2437
      2 C         143.0907  138.8470  167.0453 C.3     1  UNL1        0.1001
      3 C         143.6255  138.9966  165.6519 C.3     1  UNL1        0.0306
      4 C         143.5123  140.4414  165.2646 C.3     1  UNL1        0.0737
      5 C         143.3372  141.9108  165.0195 C.3     1  UNL1        0.0260
      6 C         143.7553  142.5075  163.7084 C.3     1  UNL1        0.0727
      7 N         144.3486  141.6348  162.6423 N.3     1  UNL1       -0.2703
      8 C         144.5237  140.1654  162.8875 C.3     1  UNL1        0.0727
      9 C         144.1056  139.5687  164.1986 C.3     1  UNL1        0.0260
     10 C         142.9076  141.1847  166.4187 C.2     1  UNL1        0.2296
     11 O         142.6149  142.6551  166.4643 O.2     1  UNL1       -0.2745
     12 C         140.2040  140.1167  170.6456 C.ar    1  UNL1        0.3212
     13 N         140.8499  141.1355  171.5372 N.ar    1  UNL1       -0.1926
     14 C         142.0949  141.8421  171.0894 C.ar    1  UNL1        0.1065
     15 C         142.6939  141.5301  169.7501 C.ar    1  UNL1        0.0556
     16 C         142.0480  140.5113  168.8586 C.ar    1  UNL1        0.1436
     17 N         140.8030  139.8046  169.3064 N.ar    1  UNL1       -0.1789
     18 C         137.6583  139.6639  170.3905 C.3     1  UNL1        0.2559
     19 O         138.9590  139.4099  171.0934 O.3     1  UNL1       -0.4426
     20 C         144.7667  142.2315  161.3312 C.3     1  UNL1        0.1063
     21 C         143.7789  142.3402  160.2076 C.3     1  UNL1        0.1483
     22 O         144.2044  142.9114  158.8875 O.3     1  UNL1       -0.3786
     23 H         143.4509  142.9100  158.2766 H       1  UNL1        0.2108
     24 C         142.3655  141.8777  160.4041 C.ar    1  UNL1        0.0015
     25 C         141.9915  140.4579  160.0975 C.ar    1  UNL1       -0.0020
     26 C         140.5782  139.9954  160.2940 C.ar    1  UNL1        0.0060
     27 C         139.5390  140.9527  160.7972 C.ar    1  UNL1        0.0748
     28 C         139.9129  142.3726  161.1038 C.ar    1  UNL1        0.0233
     29 C         141.3262  142.8351  160.9073 C.ar    1  UNL1       -0.0238
     30 C         141.7002  144.2550  161.2140 C.3     1  UNL1        0.0306
     31 C         138.6818  143.0831  161.5828 C.3     1  UNL1        0.2352
     32 O         137.5468  142.1024  161.5721 O.3     1  UNL1       -0.4404
     33 C         138.0766  140.7857  161.0866 C.2     1  UNL1        0.3413
     34 O         137.2834  139.5236  160.9198 O.2     1  UNL1       -0.2449
@<TRIPOS>BOND
     1    18    19    1
     2    19    12    1
     3    12    13   ar
     4    13    14   ar
     5    14    15   ar
     6    15    16   ar
     7    16     1    1
     8     1     2    1
     9     2     3    1
    10     3     4    1
    11     4     5    1
    12     5     6    1
    13     6     7    1
    14     7    20    1
    15    20    21    1
    16    21    22    1
    17    21    24    1
    18    24    25   ar
    19    25    26   ar
    20    26    27   ar
    21    27    28   ar
    22    28    29   ar
    23    29    30    1
    24    28    31    1
    25    31    32    1
    26    32    33    1
    27    33    34    2
    28     7     8    1
    29     8     9    1
    30     4    10    1
    31    10    11    2
    32    16    17   ar
    33    17    12   ar
    34    10     1   am
    35     9     4    1
    36    29    24   ar
    37    33    27    1
    38    22    23    1
@<TRIPOS>MOLECULE
*****
 34 38 0 0 0
SMALL
GASTEIGER

@<TRIPOS>ATOM
      1 N         143.0072  139.4731  158.3210 N.am    1  UNL1       -0.2437
      2 C         143.3032  140.8206  157.7322 C.3     1  UNL1        0.1001
      3 C         143.8289  141.6999  158.8279 C.3     1  UNL1        0.0306
      4 C         143.8578  140.8958  160.0939 C.3     1  UNL1        0.0737
      5 C         143.8298  139.9722  161.2755 C.3     1  UNL1        0.0260
      6 C         144.2863  140.4590  162.6188 C.3     1  UNL1        0.0727
      7 N         144.7709  141.8693  162.7806 N.3     1  UNL1       -0.2703
      8 C         144.7990  142.7929  161.5990 C.3     1  UNL1        0.0727
      9 C         144.3424  142.3062  160.2557 C.3     1  UNL1        0.0260
     10 C         143.3500  139.5196  159.7807 C.2     1  UNL1        0.2296
     11 O         143.2096  138.3885  160.7557 O.2     1  UNL1       -0.2745
     12 C         142.7616  135.8704  156.6748 C.ar    1  UNL1        0.3212
     13 N         141.3772  135.9157  156.0988 N.ar    1  UNL1       -0.1926
     14 C         140.5364  137.1468  156.2637 C.ar    1  UNL1        0.1065
     15 C         141.0797  138.3326  157.0044 C.ar    1  UNL1        0.0556
     16 C         142.4639  138.2873  157.5803 C.ar    1  UNL1        0.1436
     17 N         143.3049  137.0562  157.4155 N.ar    1  UNL1       -0.1789
     18 C         143.8436  133.7334  157.6810 C.3     1  UNL1        0.2559
     19 O         143.6025  134.6393  156.5100 O.3     1  UNL1       -0.4426
     20 C         145.2275  142.3560  164.1240 C.3     1  UNL1        0.1063
     21 C         144.3847  143.3274  164.8960 C.3     1  UNL1        0.1483
     22 O         144.9831  144.1007  166.0335 O.3     1  UNL1       -0.3786
     23 H         144.3081  144.6791  166.4217 H       1  UNL1        0.2108
     24 C         142.9435  143.5256  164.5304 C.ar    1  UNL1        0.0015
     25 C         142.5490  144.6480  163.6168 C.ar    1  UNL1       -0.0020
     26 C         141.1078  144.8463  163.2512 C.ar    1  UNL1        0.0060
     27 C         140.0611  143.9221  163.7992 C.ar    1  UNL1        0.0748
     28 C         140.4556  142.7997  164.7127 C.ar    1  UNL1        0.0233
     29 C         141.8968  142.6014  165.0783 C.ar    1  UNL1       -0.0238
     30 C         142.2913  141.4790  165.9919 C.3     1  UNL1        0.0306
     31 C         139.2114  142.0542  165.0951 C.3     1  UNL1        0.2352
     32 O         138.0480  142.7159  164.4179 O.3     1  UNL1       -0.4404
     33 C         138.5731  143.8703  163.6170 C.2     1  UNL1        0.3413
     34 O         137.7541  144.8082  162.7807 O.2     1  UNL1       -0.2449
@<TRIPOS>BOND
     1    18    19    1
     2    19    12    1
     3    12    13   ar
     4    13    14   ar
     5    14    15   ar
     6    15    16   ar
     7    16     1    1
     8     1     2    1
     9     2     3    1
    10     3     4    1
    11     4     5    1
    12     5     6    1
    13     6     7    1
    14     7    20    1
    15    20    21    1
    16    21    22    1
    17    21    24    1
    18    24    25   ar
    19    25    26   ar
    20    26    27   ar
    21    27    28   ar
    22    28    29   ar
    23    29    30    1
    24    28    31    1
    25    31    32    1
    26    32    33    1
    27    33    34    2
    28     7     8    1
    29     8     9    1
    30     4    10    1
    31    10    11    2
    32    16    17   ar
    33    17    12   ar
    34    10     1   am
    35     9     4    1
    36    29    24   ar
    37    33    27    1
    38    22    23    1
@<TRIPOS>MOLECULE
*****
 34 38 0 0 0
SMALL
GASTEIGER

@<TRIPOS>ATOM
      1 N         138.4441  140.4012  159.4869 N.am    1  UNL1       -0.2437
      2 C         138.9886  139.0050  159.4190 C.3     1  UNL1        0.1001
      3 C         139.0779  138.4738  160.8189 C.3     1  UNL1        0.0306
      4 C         138.5887  139.5415  161.7521 C.3     1  UNL1        0.0737
      5 C         138.0757  140.6980  162.5578 C.3     1  UNL1        0.0260
      6 C         137.9928  140.5929  164.0518 C.3     1  UNL1        0.0727
      7 N         138.4228  139.3314  164.7400 N.3     1  UNL1       -0.2703
      8 C         138.9358  138.1749  163.9342 C.3     1  UNL1        0.0727
      9 C         139.0187  138.2800  162.4402 C.3     1  UNL1        0.0260
     10 C         138.1970  140.7327  160.9288 C.2     1  UNL1        0.2296
     11 O         137.6536  142.0279  161.4551 O.2     1  UNL1       -0.2745
     12 C         138.7517  143.4609  156.9784 C.ar    1  UNL1        0.3212
     13 N         137.6854  143.1178  155.9806 N.ar    1  UNL1       -0.1926
     14 C         136.8722  141.8691  156.1517 C.ar    1  UNL1        0.1065
     15 C         137.1251  140.9636  157.3204 C.ar    1  UNL1        0.0556
     16 C         138.1912  141.3067  158.3181 C.ar    1  UNL1        0.1436
     17 N         139.0046  142.5554  158.1471 N.ar    1  UNL1       -0.1789
     18 C         140.2955  145.2953  157.9793 C.3     1  UNL1        0.2559
     19 O         139.5650  144.7096  156.8073 O.3     1  UNL1       -0.4426
     20 C         138.3398  139.2264  166.2341 C.3     1  UNL1        0.1063
     21 C         139.4891  139.6830  167.0830 C.3     1  UNL1        0.1483
     22 O         139.3440  139.7380  168.5750 O.3     1  UNL1       -0.3786
     23 H         140.1729  140.0520  168.9690 H       1  UNL1        0.2108
     24 C         140.7834  140.0848  166.4400 C.ar    1  UNL1        0.0015
     25 C         141.8121  139.0439  166.1109 C.ar    1  UNL1       -0.0020
     26 C         143.1064  139.4455  165.4679 C.ar    1  UNL1        0.0060
     27 C         143.3719  140.8881  165.1540 C.ar    1  UNL1        0.0748
     28 C         142.3432  141.9289  165.4831 C.ar    1  UNL1        0.0233
     29 C         141.0489  141.5273  166.1261 C.ar    1  UNL1       -0.0238
     30 C         140.0202  142.5681  166.4552 C.3     1  UNL1        0.0306
     31 C         142.8818  143.2632  165.0593 C.3     1  UNL1        0.2352
     32 O         144.2434  143.0470  164.4683 O.3     1  UNL1       -0.4404
     33 C         144.5463  141.5791  164.5268 C.2     1  UNL1        0.3413
     34 O         145.8030  140.9182  164.0431 O.2     1  UNL1       -0.2449
@<TRIPOS>BOND
     1    18    19    1
     2    19    12    1
     3    12    13   ar
     4    13    14   ar
     5    14    15   ar
     6    15    16   ar
     7    16     1    1
     8     1     2    1
     9     2     3    1
    10     3     4    1
    11     4     5    1
    12     5     6    1
    13     6     7    1
    14     7    20    1
    15    20    21    1
    16    21    22    1
    17    21    24    1
    18    24    25   ar
    19    25    26   ar
    20    26    27   ar
    21    27    28   ar
    22    28    29   ar
    23    29    30    1
    24    28    31    1
    25    31    32    1
    26    32    33    1
    27    33    34    2
    28     7     8    1
    29     8     9    1
    30     4    10    1
    31    10    11    2
    32    16    17   ar
    33    17    12   ar
    34    10     1   am
    35     9     4    1
    36    29    24   ar
    37    33    27    1
    38    22    23    1
@<TRIPOS>MOLECULE
*****
 34 38 0 0 0
SMALL
GASTEIGER

@<TRIPOS>ATOM
      1 N         143.0375  138.5429  159.3387 N.am    1  UNL1       -0.2437
      2 C         142.9721  137.4768  160.3920 C.3     1  UNL1        0.1001
      3 C         143.4938  138.0578  161.6727 C.3     1  UNL1        0.0306
      4 C         143.8816  139.4831  161.4111 C.3     1  UNL1        0.0737
      5 C         144.2232  140.8850  161.0013 C.3     1  UNL1        0.0260
      6 C         144.7930  141.8422  162.0057 C.3     1  UNL1        0.0727
      7 N         145.0212  141.3976  163.4200 N.3     1  UNL1       -0.2703
      8 C         144.6796  139.9957  163.8299 C.3     1  UNL1        0.0727
      9 C         144.1099  139.0384  162.8254 C.3     1  UNL1        0.0260
     10 C         143.5997  139.7829  159.9687 C.2     1  UNL1        0.2296
     11 O         143.8380  141.0926  159.2774 O.2     1  UNL1       -0.2745
     12 C         142.7193  137.1097  155.6517 C.ar    1  UNL1        0.3212
     13 N         141.7701  138.0995  155.0438 N.ar    1  UNL1       -0.1926
     14 C         141.2435  139.2369  155.8676 C.ar    1  UNL1        0.1065
     15 C         141.6659  139.3848  157.2992 C.ar    1  UNL1        0.0556
     16 C         142.6151  138.3951  157.9071 C.ar    1  UNL1        0.1436
     17 N         143.1418  137.2576  157.0834 N.ar    1  UNL1       -0.1789
     18 C         142.3686  135.3214  153.7999 C.3     1  UNL1        0.2559
     19 O         143.2460  135.9722  154.8280 O.3     1  UNL1       -0.4426
     20 C         145.5910  142.3549  164.4245 C.3     1  UNL1        0.1063
     21 C         144.6791  143.2579  165.2012 C.3     1  UNL1        0.1483
     22 O         145.2489  144.2154  166.2054 O.3     1  UNL1       -0.3786
     23 H         144.5292  144.7204  166.6151 H       1  UNL1        0.2108
     24 C         143.1975  143.2033  164.9736 C.ar    1  UNL1        0.0015
     25 C         142.3593  142.2120  165.7250 C.ar    1  UNL1       -0.0020
     26 C         140.8777  142.1574  165.4975 C.ar    1  UNL1        0.0060
     27 C         140.2342  143.0942  164.5186 C.ar    1  UNL1        0.0748
     28 C         141.0724  144.0855  163.7672 C.ar    1  UNL1        0.0233
     29 C         142.5540  144.1401  163.9947 C.ar    1  UNL1       -0.0238
     30 C         143.3922  145.1315  163.2432 C.3     1  UNL1        0.0306
     31 C         140.1645  144.8763  162.8725 C.3     1  UNL1        0.2352
     32 O         138.7652  144.3737  163.0709 O.3     1  UNL1       -0.4404
     33 C         138.8084  143.2723  164.0883 C.2     1  UNL1        0.3413
     34 O         137.6321  142.4868  164.5877 O.2     1  UNL1       -0.2449
@<TRIPOS>BOND
     1    18    19    1
     2    19    12    1
     3    12    13   ar
     4    13    14   ar
     5    14    15   ar
     6    15    16   ar
     7    16     1    1
     8     1     2    1
     9     2     3    1
    10     3     4    1
    11     4     5    1
    12     5     6    1
    13     6     7    1
    14     7    20    1
    15    20    21    1
    16    21    22    1
    17    21    24    1
    18    24    25   ar
    19    25    26   ar
    20    26    27   ar
    21    27    28   ar
    22    28    29   ar
    23    29    30    1
    24    28    31    1
    25    31    32    1
    26    32    33    1
    27    33    34    2
    28     7     8    1
    29     8     9    1
    30     4    10    1
    31    10    11    2
    32    16    17   ar
    33    17    12   ar
    34    10     1   am
    35     9     4    1
    36    29    24   ar
    37    33    27    1
    38    22    23    1
@<TRIPOS>MOLECULE
*****
 34 38 0 0 0
SMALL
GASTEIGER

@<TRIPOS>ATOM
      1 N         142.7513  138.3829  159.8746 N.am    1  UNL1       -0.2437
      2 C         143.9758  139.2467  159.9415 C.3     1  UNL1        0.1001
      3 C         144.2619  139.5343  161.3856 C.3     1  UNL1        0.0306
      4 C         143.2142  138.8483  162.2113 C.3     1  UNL1        0.0737
      5 C         142.1052  138.1111  162.9017 C.3     1  UNL1        0.0260
      6 C         142.0081  138.1329  164.3984 C.3     1  UNL1        0.0727
      7 N         143.0200  138.8918  165.2047 N.3     1  UNL1       -0.2703
      8 C         144.1290  139.6290  164.5143 C.3     1  UNL1        0.0727
      9 C         144.2260  139.6072  163.0176 C.3     1  UNL1        0.0260
     10 C         142.2806  138.1366  161.2775 C.2     1  UNL1        0.2296
     11 O         141.0860  137.3218  161.6764 O.2     1  UNL1       -0.2745
     12 C         142.2472  136.4455  156.4480 C.ar    1  UNL1        0.3212
     13 N         140.8278  136.8069  156.1242 N.ar    1  UNL1       -0.1926
     14 C         140.0497  137.6935  157.0506 C.ar    1  UNL1        0.1065
     15 C         140.6908  138.2188  158.3007 C.ar    1  UNL1        0.0556
     16 C         142.1101  137.8575  158.6245 C.ar    1  UNL1        0.1436
     17 N         142.8884  136.9709  157.6981 N.ar    1  UNL1       -0.1789
     18 C         142.5849  135.3913  154.0974 C.3     1  UNL1        0.2559
     19 O         143.0254  135.5589  155.5216 O.3     1  UNL1       -0.4426
     20 C         142.9229  138.9136  166.7014 C.3     1  UNL1        0.1063
     21 C         142.0581  139.9327  167.3822 C.3     1  UNL1        0.1483
     22 O         141.9101  139.9141  168.8747 O.3     1  UNL1       -0.3786
     23 H         141.3215  140.6341  169.1503 H       1  UNL1        0.2108
     24 C         141.3413  140.9706  166.5703 C.ar    1  UNL1        0.0015
     25 C         142.0299  142.2566  166.2207 C.ar    1  UNL1       -0.0020
     26 C         141.3131  143.2945  165.4089 C.ar    1  UNL1        0.0060
     27 C         139.9079  143.0464  164.9467 C.ar    1  UNL1        0.0748
     28 C         139.2193  141.7604  165.2964 C.ar    1  UNL1        0.0233
     29 C         139.9361  140.7226  166.1081 C.ar    1  UNL1       -0.0238
     30 C         139.2476  139.4366  166.4578 C.3     1  UNL1        0.0306
     31 C         137.8414  141.7968  164.7048 C.3     1  UNL1        0.2352
     32 O         137.6782  143.1052  163.9896 O.3     1  UNL1       -0.4404
     33 C         138.9554  143.8775  164.1392 C.2     1  UNL1        0.3413
     34 O         139.2317  145.2414  163.5794 O.2     1  UNL1       -0.2449
@<TRIPOS>BOND
     1    18    19    1
     2    19    12    1
     3    12    13   ar
     4    13    14   ar
     5    14    15   ar
     6    15    16   ar
     7    16     1    1
     8     1     2    1
     9     2     3    1
    10     3     4    1
    11     4     5    1
    12     5     6    1
    13     6     7    1
    14     7    20    1
    15    20    21    1
    16    21    22    1
    17    21    24    1
    18    24    25   ar
    19    25    26   ar
    20    26    27   ar
    21    27    28   ar
    22    28    29   ar
    23    29    30    1
    24    28    31    1
    25    31    32    1
    26    32    33    1
    27    33    34    2
    28     7     8    1
    29     8     9    1
    30     4    10    1
    31    10    11    2
    32    16    17   ar
    33    17    12   ar
    34    10     1   am
    35     9     4    1
    36    29    24   ar
    37    33    27    1
    38    22    23    1
@<TRIPOS>MOLECULE
*****
 34 38 0 0 0
SMALL
GASTEIGER

@<TRIPOS>ATOM
      1 N         139.4058  138.9996  159.2826 N.am    1  UNL1       -0.2437
      2 C         138.4376  140.1444  159.2362 C.3     1  UNL1        0.1001
      3 C         138.0122  140.4490  160.6419 C.3     1  UNL1        0.0306
      4 C         138.7173  139.4925  161.5573 C.3     1  UNL1        0.0737
      5 C         139.4893  138.4752  162.3441 C.3     1  UNL1        0.0260
      6 C         139.3565  138.4235  163.8373 C.3     1  UNL1        0.0727
      7 N         138.4517  139.3891  164.5437 N.3     1  UNL1       -0.2703
      8 C         137.6797  140.4064  163.7568 C.3     1  UNL1        0.0727
      9 C         137.8125  140.4580  162.2636 C.3     1  UNL1        0.0260
     10 C         139.5786  138.5967  160.7172 C.2     1  UNL1        0.2296
     11 O         140.4583  137.4919  161.2228 O.2     1  UNL1       -0.2745
     12 C         139.9472  137.2952  155.7398 C.ar    1  UNL1        0.3212
     13 N         141.4352  137.1063  155.7405 N.ar    1  UNL1       -0.1926
     14 C         142.2467  137.5486  156.9219 C.ar    1  UNL1        0.1065
     15 C         141.5703  138.1797  158.1026 C.ar    1  UNL1        0.0556
     16 C         140.0823  138.3685  158.1019 C.ar    1  UNL1        0.1436
     17 N         139.2707  137.9263  156.9205 N.ar    1  UNL1       -0.1789
     18 C         137.8519  137.5541  154.2255 C.3     1  UNL1        0.2559
     19 O         139.1356  136.8529  154.5584 O.3     1  UNL1       -0.4426
     20 C         138.3189  139.3374  166.0369 C.3     1  UNL1        0.1063
     21 C         139.3460  140.0022  166.9047 C.3     1  UNL1        0.1483
     22 O         139.3985  139.6974  168.3725 O.3     1  UNL1       -0.3786
     23 H         140.1145  140.2070  168.7831 H       1  UNL1        0.2108
     24 C         140.3207  140.9718  166.3047 C.ar    1  UNL1        0.0015
     25 C         139.9062  142.3905  166.0491 C.ar    1  UNL1       -0.0020
     26 C         140.8808  143.3601  165.4491 C.ar    1  UNL1        0.0060
     27 C         142.2699  142.9110  165.1048 C.ar    1  UNL1        0.0748
     28 C         142.6844  141.4922  165.3604 C.ar    1  UNL1        0.0233
     29 C         141.7098  140.5226  165.9604 C.ar    1  UNL1       -0.0238
     30 C         142.1243  139.1039  166.2160 C.3     1  UNL1        0.0306
     31 C         144.1104  141.3396  164.9209 C.3     1  UNL1        0.2352
     32 O         144.5773  142.6640  164.3936 O.3     1  UNL1       -0.4404
     33 C         143.4398  143.6351  164.5072 C.2     1  UNL1        0.3413
     34 O         143.4672  145.0773  164.0956 O.2     1  UNL1       -0.2449
@<TRIPOS>BOND
     1    18    19    1
     2    19    12    1
     3    12    13   ar
     4    13    14   ar
     5    14    15   ar
     6    15    16   ar
     7    16     1    1
     8     1     2    1
     9     2     3    1
    10     3     4    1
    11     4     5    1
    12     5     6    1
    13     6     7    1
    14     7    20    1
    15    20    21    1
    16    21    22    1
    17    21    24    1
    18    24    25   ar
    19    25    26   ar
    20    26    27   ar
    21    27    28   ar
    22    28    29   ar
    23    29    30    1
    24    28    31    1
    25    31    32    1
    26    32    33    1
    27    33    34    2
    28     7     8    1
    29     8     9    1
    30     4    10    1
    31    10    11    2
    32    16    17   ar
    33    17    12   ar
    34    10     1   am
    35     9     4    1
    36    29    24   ar
    37    33    27    1
    38    22    23    1
