@<TRIPOS>MOLECULE
*****
 23 25 0 0 0
SMALL
GASTEIGER

@<TRIPOS>ATOM
      1 C         139.0570  142.5611  163.5933 C.ar    1  UNL1        0.0218
      2 C         137.8923  143.2520  162.9481 C.ar    1  UNL1        0.0989
      3 N         138.0391  144.6572  162.4443 N.ar    1  UNL1       -0.2426
      4 C         139.3505  145.3716  162.5857 C.ar    1  UNL1        0.0959
      5 C         140.5151  144.6807  163.2309 C.ar    1  UNL1        0.0128
      6 C         140.3683  143.2754  163.7348 C.ar    1  UNL1        0.0003
      7 C         138.8686  140.0120  163.1277 C.ar    1  UNL1        0.1409
      8 C         138.7218  138.6069  163.6316 C.ar    1  UNL1        0.0665
      9 C         138.6165  138.3455  165.1049 C.ar    1  UNL1        0.1432
     10 F         138.4697  136.9403  165.6087 F       1  UNL1       -0.2041
     11 C         138.6580  139.4894  166.0743 C.ar    1  UNL1        0.0298
     12 C         138.8049  140.8945  165.5705 C.ar    1  UNL1        0.0054
     13 C         138.9101  141.1559  164.0972 C.ar    1  UNL1        0.0356
     14 C         137.7747  140.0890  160.7724 C.3     1  UNL1        0.2525
     15 O         138.9739  140.2734  161.6544 O.3     1  UNL1       -0.4714
     16 C         141.8265  145.3949  163.3724 C.3     1  UNL1        0.0971
     17 N         142.9885  145.0080  162.5064 N.3     1  UNL1       -0.2948
     18 H         143.5787  145.8352  162.4186 H       1  UNL1        0.1235
     19 C         143.8855  143.8776  162.9160 C.3     1  UNL1        0.0542
     20 C         144.2205  143.4837  164.3241 C.3     1  UNL1        0.0157
     21 C         145.1470  142.3054  164.2678 C.3     1  UNL1        0.0014
     22 C         145.3847  141.9711  162.8250 C.3     1  UNL1        0.0014
     23 C         144.6050  142.9428  161.9895 C.3     1  UNL1        0.0157
@<TRIPOS>BOND
     1    14    15    1
     2    15     7    1
     3     7     8   ar
     4     8     9   ar
     5     9    10    1
     6     9    11   ar
     7    11    12   ar
     8    12    13   ar
     9    13     1    1
    10     1     2   ar
    11     2     3   ar
    12     3     4   ar
    13     4     5   ar
    14     5    16    1
    15    16    17    1
    16    17    19    1
    17    19    20    1
    18    20    21    1
    19    21    22    1
    20    22    23    1
    21     5     6   ar
    22    13     7   ar
    23     6     1   ar
    24    23    19    1
    25    17    18    1
@<TRIPOS>MOLECULE
*****
 23 25 0 0 0
SMALL
GASTEIGER

@<TRIPOS>ATOM
      1 C         140.6955  142.8678  165.8621 C.ar    1  UNL1        0.0218
      2 C         142.0964  142.8519  165.3261 C.ar    1  UNL1        0.0989
      3 N         142.4233  143.5869  164.0601 N.ar    1  UNL1       -0.2426
      4 C         141.3494  144.3379  163.3301 C.ar    1  UNL1        0.0959
      5 C         139.9486  144.3538  163.8662 C.ar    1  UNL1        0.0128
      6 C         139.6216  143.6188  165.1322 C.ar    1  UNL1        0.0003
      7 C         139.8300  140.7342  167.0657 C.ar    1  UNL1        0.1409
      8 C         139.5031  139.9992  168.3318 C.ar    1  UNL1        0.0665
      9 C         139.7147  140.6627  169.6603 C.ar    1  UNL1        0.1432
     10 F         139.3878  139.9277  170.9263 F       1  UNL1       -0.2041
     11 C         140.2533  142.0613  169.7227 C.ar    1  UNL1        0.0298
     12 C         140.5802  142.7963  168.4567 C.ar    1  UNL1        0.0054
     13 C         140.3686  142.1327  167.1282 C.ar    1  UNL1        0.0356
     14 C         138.4214  139.1934  165.5193 C.3     1  UNL1        0.2525
     15 O         139.6184  140.0706  165.7372 O.3     1  UNL1       -0.4714
     16 C         138.8747  145.1048  163.1362 C.3     1  UNL1        0.0971
     17 N         137.6889  144.3705  162.5842 N.3     1  UNL1       -0.2948
     18 H         137.3626  144.9026  161.7775 H       1  UNL1        0.1235
     19 C         137.8311  142.9464  162.1350 C.3     1  UNL1        0.0542
     20 C         137.4120  141.7318  162.9090 C.3     1  UNL1        0.0157
     21 C         137.7392  140.5216  162.0854 C.3     1  UNL1        0.0014
     22 C         138.3606  140.9883  160.8023 C.3     1  UNL1        0.0014
     23 C         138.4174  142.4869  160.8330 C.3     1  UNL1        0.0157
@<TRIPOS>BOND
     1    14    15    1
     2    15     7    1
     3     7     8   ar
     4     8     9   ar
     5     9    10    1
     6     9    11   ar
     7    11    12   ar
     8    12    13   ar
     9    13     1    1
    10     1     2   ar
    11     2     3   ar
    12     3     4   ar
    13     4     5   ar
    14     5    16    1
    15    16    17    1
    16    17    19    1
    17    19    20    1
    18    20    21    1
    19    21    22    1
    20    22    23    1
    21     5     6   ar
    22    13     7   ar
    23     6     1   ar
    24    23    19    1
    25    17    18    1
@<TRIPOS>MOLECULE
*****
 23 25 0 0 0
SMALL
GASTEIGER

@<TRIPOS>ATOM
      1 C         139.8406  139.0636  165.3696 C.ar    1  UNL1        0.0218
      2 C         140.3294  137.7554  164.8223 C.ar    1  UNL1        0.0989
      3 N         139.9119  137.3131  163.4512 N.ar    1  UNL1       -0.2426
      4 C         139.0054  138.1790  162.6274 C.ar    1  UNL1        0.0959
      5 C         138.5166  139.4872  163.1747 C.ar    1  UNL1        0.0128
      6 C         138.9342  139.9295  164.5459 C.ar    1  UNL1        0.0003
      7 C         141.7124  139.6902  167.0589 C.ar    1  UNL1        0.1409
      8 C         142.1299  140.1325  168.4301 C.ar    1  UNL1        0.0665
      9 C         141.0933  140.3905  169.4830 C.ar    1  UNL1        0.1432
     10 F         141.5109  140.8328  170.8542 F       1  UNL1       -0.2041
     11 C         139.6391  140.2062  169.1649 C.ar    1  UNL1        0.0298
     12 C         139.2215  139.7639  167.7938 C.ar    1  UNL1        0.0054
     13 C         140.2582  139.5059  166.7408 C.ar    1  UNL1        0.0356
     14 C         143.7321  138.3127  166.1796 C.3     1  UNL1        0.2525
     15 O         142.7491  139.4322  166.0060 O.3     1  UNL1       -0.4714
     16 C         137.6102  140.3531  162.3510 C.3     1  UNL1        0.0971
     17 N         136.8806  141.4970  162.9906 N.3     1  UNL1       -0.2948
     18 H         136.5067  141.1506  163.8741 H       1  UNL1        0.1235
     19 C         137.6079  142.7722  163.2985 C.3     1  UNL1        0.0542
     20 C         138.2890  143.6617  162.3010 C.3     1  UNL1        0.0157
     21 C         138.8839  144.8211  163.0439 C.3     1  UNL1        0.0014
     22 C         138.5705  144.6481  164.5006 C.3     1  UNL1        0.0014
     23 C         137.7819  143.3819  164.6579 C.3     1  UNL1        0.0157
@<TRIPOS>BOND
     1    14    15    1
     2    15     7    1
     3     7     8   ar
     4     8     9   ar
     5     9    10    1
     6     9    11   ar
     7    11    12   ar
     8    12    13   ar
     9    13     1    1
    10     1     2   ar
    11     2     3   ar
    12     3     4   ar
    13     4     5   ar
    14     5    16    1
    15    16    17    1
    16    17    19    1
    17    19    20    1
    18    20    21    1
    19    21    22    1
    20    22    23    1
    21     5     6   ar
    22    13     7   ar
    23     6     1   ar
    24    23    19    1
    25    17    18    1
@<TRIPOS>MOLECULE
*****
 23 25 0 0 0
SMALL
GASTEIGER

@<TRIPOS>ATOM
      1 C         142.7353  139.6238  165.5094 C.ar    1  UNL1        0.0218
      2 C         142.3793  138.5287  164.5481 C.ar    1  UNL1        0.0989
      3 N         143.0920  138.4246  163.2324 N.ar    1  UNL1       -0.2426
      4 C         144.1608  139.4156  162.8779 C.ar    1  UNL1        0.0959
      5 C         144.5168  140.5107  163.8392 C.ar    1  UNL1        0.0128
      6 C         143.8040  140.6148  165.1550 C.ar    1  UNL1        0.0003
      7 C         140.5934  140.1814  166.8701 C.ar    1  UNL1        0.1409
      8 C         139.8807  140.2855  168.1859 C.ar    1  UNL1        0.0665
      9 C         140.5970  139.9359  169.4566 C.ar    1  UNL1        0.1432
     10 F         139.8842  140.0399  170.7723 F       1  UNL1       -0.2041
     11 C         142.0260  139.4823  169.4116 C.ar    1  UNL1        0.0298
     12 C         142.7387  139.3782  168.0959 C.ar    1  UNL1        0.0054
     13 C         142.0224  139.7278  166.8252 C.ar    1  UNL1        0.0356
     14 C         138.5248  139.9473  165.3158 C.3     1  UNL1        0.2525
     15 O         139.8771  140.5310  165.5994 O.3     1  UNL1       -0.4714
     16 C         145.5856  141.5017  163.4848 C.3     1  UNL1        0.0971
     17 N         145.2867  142.6165  162.5268 N.3     1  UNL1       -0.2948
     18 H         145.1386  142.1879  161.6132 H       1  UNL1        0.1235
     19 C         144.1185  143.5246  162.7736 C.3     1  UNL1        0.0542
     20 C         142.9409  143.7134  161.8638 C.3     1  UNL1        0.0157
     21 C         142.0175  144.7087  162.5013 C.3     1  UNL1        0.0014
     22 C         142.6243  145.1350  163.8052 C.3     1  UNL1        0.0014
     23 C         143.9228  144.4032  163.9735 C.3     1  UNL1        0.0157
@<TRIPOS>BOND
     1    14    15    1
     2    15     7    1
     3     7     8   ar
     4     8     9   ar
     5     9    10    1
     6     9    11   ar
     7    11    12   ar
     8    12    13   ar
     9    13     1    1
    10     1     2   ar
    11     2     3   ar
    12     3     4   ar
    13     4     5   ar
    14     5    16    1
    15    16    17    1
    16    17    19    1
    17    19    20    1
    18    20    21    1
    19    21    22    1
    20    22    23    1
    21     5     6   ar
    22    13     7   ar
    23     6     1   ar
    24    23    19    1
    25    17    18    1
@<TRIPOS>MOLECULE
*****
 23 25 0 0 0
SMALL
GASTEIGER

@<TRIPOS>ATOM
      1 C         139.4893  139.9695  165.7802 C.ar    1  UNL1        0.0218
      2 C         138.3210  140.3469  164.9184 C.ar    1  UNL1        0.0989
      3 N         138.1302  139.6895  163.5838 N.ar    1  UNL1       -0.2426
      4 C         139.1077  138.6546  163.1108 C.ar    1  UNL1        0.0959
      5 C         140.2760  138.2773  163.9725 C.ar    1  UNL1        0.0128
      6 C         140.4668  138.9347  165.3072 C.ar    1  UNL1        0.0003
      7 C         140.3489  141.9667  167.2022 C.ar    1  UNL1        0.1409
      8 C         140.5397  142.6241  168.5369 C.ar    1  UNL1        0.0665
      9 C         140.0616  141.9417  169.7842 C.ar    1  UNL1        0.1432
     10 F         140.2524  142.5992  171.1190 F       1  UNL1       -0.2041
     11 C         139.3928  140.6019  169.6969 C.ar    1  UNL1        0.0298
     12 C         139.2021  139.9446  168.3622 C.ar    1  UNL1        0.0054
     13 C         139.6801  140.6269  167.1149 C.ar    1  UNL1        0.0356
     14 C         139.9759  143.6961  165.2996 C.3     1  UNL1        0.2525
     15 O         140.8270  142.6491  165.9549 O.3     1  UNL1       -0.4714
     16 C         141.2535  137.2425  163.4996 C.3     1  UNL1        0.0971
     17 N         142.3441  137.6230  162.5426 N.3     1  UNL1       -0.2948
     18 H         141.8882  137.9223  161.6806 H       1  UNL1        0.1235
     19 C         143.3234  138.6980  162.9104 C.3     1  UNL1        0.0542
     20 C         143.8575  139.7562  161.9910 C.3     1  UNL1        0.0157
     21 C         144.8047  140.6158  162.7745 C.3     1  UNL1        0.0014
     22 C         144.8560  140.0890  164.1780 C.3     1  UNL1        0.0014
     23 C         143.9405  138.9037  164.2620 C.3     1  UNL1        0.0157
@<TRIPOS>BOND
     1    14    15    1
     2    15     7    1
     3     7     8   ar
     4     8     9   ar
     5     9    10    1
     6     9    11   ar
     7    11    12   ar
     8    12    13   ar
     9    13     1    1
    10     1     2   ar
    11     2     3   ar
    12     3     4   ar
    13     4     5   ar
    14     5    16    1
    15    16    17    1
    16    17    19    1
    17    19    20    1
    18    20    21    1
    19    21    22    1
    20    22    23    1
    21     5     6   ar
    22    13     7   ar
    23     6     1   ar
    24    23    19    1
    25    17    18    1
@<TRIPOS>MOLECULE
*****
 23 25 0 0 0
SMALL
GASTEIGER

@<TRIPOS>ATOM
      1 C         139.6994  141.2320  166.1257 C.ar    1  UNL1        0.0218
      2 C         138.8309  140.3840  165.2444 C.ar    1  UNL1        0.0989
      3 N         138.0159  141.0210  164.1581 N.ar    1  UNL1       -0.2426
      4 C         138.0694  142.5060  163.9531 C.ar    1  UNL1        0.0959
      5 C         138.9379  143.3540  164.8344 C.ar    1  UNL1        0.0128
      6 C         139.7529  142.7169  165.9207 C.ar    1  UNL1        0.0003
      7 C         141.8688  140.0306  166.9006 C.ar    1  UNL1        0.1409
      8 C         142.6837  139.3936  167.9869 C.ar    1  UNL1        0.0665
      9 C         142.1442  139.3209  169.3846 C.ar    1  UNL1        0.1432
     10 F         142.9591  138.6838  170.4709 F       1  UNL1       -0.2041
     11 C         140.7897  139.8851  169.6960 C.ar    1  UNL1        0.0298
     12 C         139.9748  140.5222  168.6097 C.ar    1  UNL1        0.0054
     13 C         140.5144  140.5949  167.2120 C.ar    1  UNL1        0.0356
     14 C         142.5529  138.8519  164.6887 C.3     1  UNL1        0.2525
     15 O         142.4083  140.1034  165.5029 O.3     1  UNL1       -0.4714
     16 C         138.9915  144.8389  164.6294 C.3     1  UNL1        0.0971
     17 N         139.7635  145.4095  163.4769 N.3     1  UNL1       -0.2948
     18 H         139.8250  146.4156  163.6330 H       1  UNL1        0.1235
     19 C         141.1565  144.9290  163.1960 C.3     1  UNL1        0.0542
     20 C         142.4033  145.3816  163.8964 C.3     1  UNL1        0.0157
     21 C         143.5646  144.6440  163.2987 C.3     1  UNL1        0.0014
     22 C         143.0354  143.7354  162.2288 C.3     1  UNL1        0.0014
     23 C         141.5472  143.9116  162.1654 C.3     1  UNL1        0.0157
@<TRIPOS>BOND
     1    14    15    1
     2    15     7    1
     3     7     8   ar
     4     8     9   ar
     5     9    10    1
     6     9    11   ar
     7    11    12   ar
     8    12    13   ar
     9    13     1    1
    10     1     2   ar
    11     2     3   ar
    12     3     4   ar
    13     4     5   ar
    14     5    16    1
    15    16    17    1
    16    17    19    1
    17    19    20    1
    18    20    21    1
    19    21    22    1
    20    22    23    1
    21     5     6   ar
    22    13     7   ar
    23     6     1   ar
    24    23    19    1
    25    17    18    1
@<TRIPOS>MOLECULE
*****
 23 25 0 0 0
SMALL
GASTEIGER

@<TRIPOS>ATOM
      1 C         141.1262  140.2263  164.9418 C.ar    1  UNL1        0.0218
      2 C         140.7988  139.6807  166.3001 C.ar    1  UNL1        0.0989
      3 N         139.3867  139.3027  166.6361 N.ar    1  UNL1       -0.2426
      4 C         138.3018  139.4704  165.6138 C.ar    1  UNL1        0.0959
      5 C         138.6293  140.0160  164.2555 C.ar    1  UNL1        0.0128
      6 C         140.0415  140.3940  163.9195 C.ar    1  UNL1        0.0003
      7 C         143.4347  139.6191  163.9160 C.ar    1  UNL1        0.1409
      8 C         144.8468  139.9971  163.5801 C.ar    1  UNL1        0.0665
      9 C         145.3627  141.3604  163.9340 C.ar    1  UNL1        0.1432
     10 F         146.7750  141.7384  163.5980 F       1  UNL1       -0.2041
     11 C         144.4665  142.3457  164.6238 C.ar    1  UNL1        0.0298
     12 C         143.0544  141.9677  164.9597 C.ar    1  UNL1        0.0054
     13 C         142.5385  140.6043  164.6059 C.ar    1  UNL1        0.0356
     14 C         142.3677  137.9948  162.1917 C.3     1  UNL1        0.2525
     15 O         142.9188  138.2557  163.5621 O.3     1  UNL1       -0.4714
     16 C         137.5445  140.1837  163.2331 C.3     1  UNL1        0.0971
     17 N         136.8426  141.5020  163.0938 N.3     1  UNL1       -0.2948
     18 H         136.0560  141.4868  163.7430 H       1  UNL1        0.1235
     19 C         137.5879  142.7790  163.3464 C.3     1  UNL1        0.0542
     20 C         138.2787  143.6163  162.3111 C.3     1  UNL1        0.0157
     21 C         138.8910  144.7977  163.0035 C.3     1  UNL1        0.0014
     22 C         138.5787  144.6905  164.4667 C.3     1  UNL1        0.0014
     23 C         137.7734  143.4429  164.6787 C.3     1  UNL1        0.0157
@<TRIPOS>BOND
     1    14    15    1
     2    15     7    1
     3     7     8   ar
     4     8     9   ar
     5     9    10    1
     6     9    11   ar
     7    11    12   ar
     8    12    13   ar
     9    13     1    1
    10     1     2   ar
    11     2     3   ar
    12     3     4   ar
    13     4     5   ar
    14     5    16    1
    15    16    17    1
    16    17    19    1
    17    19    20    1
    18    20    21    1
    19    21    22    1
    20    22    23    1
    21     5     6   ar
    22    13     7   ar
    23     6     1   ar
    24    23    19    1
    25    17    18    1
@<TRIPOS>MOLECULE
*****
 23 25 0 0 0
SMALL
GASTEIGER

@<TRIPOS>ATOM
      1 C         141.9225  141.4999  165.5790 C.ar    1  UNL1        0.0218
      2 C         142.2973  140.5370  164.4917 C.ar    1  UNL1        0.0989
      3 N         142.7031  141.0506  163.1420 N.ar    1  UNL1       -0.2426
      4 C         142.7340  142.5272  162.8796 C.ar    1  UNL1        0.0959
      5 C         142.3591  143.4901  163.9669 C.ar    1  UNL1        0.0128
      6 C         141.9534  142.9765  165.3166 C.ar    1  UNL1        0.0003
      7 C         140.0894  140.6054  167.1882 C.ar    1  UNL1        0.1409
      8 C         139.6837  140.0918  168.5378 C.ar    1  UNL1        0.0665
      9 C         140.7054  139.9590  169.6280 C.ar    1  UNL1        0.1432
     10 F         140.2997  139.4454  170.9777 F       1  UNL1       -0.2041
     11 C         142.1329  140.3399  169.3685 C.ar    1  UNL1        0.0298
     12 C         142.5385  140.8535  168.0188 C.ar    1  UNL1        0.0054
     13 C         141.5168  140.9863  166.9287 C.ar    1  UNL1        0.0356
     14 C         138.2407  139.5528  165.6968 C.3     1  UNL1        0.2525
     15 O         139.0676  140.7382  166.0980 O.3     1  UNL1       -0.4714
     16 C         142.3900  144.9666  163.7046 C.3     1  UNL1        0.0971
     17 N         141.1087  145.7437  163.6391 N.3     1  UNL1       -0.2948
     18 H         141.1193  146.2553  162.7568 H       1  UNL1        0.1235
     19 C         139.7926  145.0271  163.7083 C.3     1  UNL1        0.0542
     20 C         139.0717  144.3940  162.5553 C.3     1  UNL1        0.0157
     21 C         137.8000  143.7936  163.0770 C.3     1  UNL1        0.0014
     22 C         137.7350  144.0556  164.5525 C.3     1  UNL1        0.0014
     23 C         138.9665  144.8179  164.9427 C.3     1  UNL1        0.0157
@<TRIPOS>BOND
     1    14    15    1
     2    15     7    1
     3     7     8   ar
     4     8     9   ar
     5     9    10    1
     6     9    11   ar
     7    11    12   ar
     8    12    13   ar
     9    13     1    1
    10     1     2   ar
    11     2     3   ar
    12     3     4   ar
    13     4     5   ar
    14     5    16    1
    15    16    17    1
    16    17    19    1
    17    19    20    1
    18    20    21    1
    19    21    22    1
    20    22    23    1
    21     5     6   ar
    22    13     7   ar
    23     6     1   ar
    24    23    19    1
    25    17    18    1
@<TRIPOS>MOLECULE
*****
 23 25 0 0 0
SMALL
GASTEIGER

@<TRIPOS>ATOM
      1 C         141.1535  140.2043  164.8886 C.ar    1  UNL1        0.0218
      2 C         140.8251  139.7420  166.2773 C.ar    1  UNL1        0.0989
      3 N         139.4172  139.3617  166.6279 N.ar    1  UNL1       -0.2426
      4 C         138.3374  139.4438  165.5898 C.ar    1  UNL1        0.0959
      5 C         138.6658  139.9061  164.2011 C.ar    1  UNL1        0.0128
      6 C         140.0738  140.2864  163.8505 C.ar    1  UNL1        0.0003
      7 C         142.8940  142.0100  164.2103 C.ar    1  UNL1        0.1409
      8 C         144.3020  142.3902  163.8598 C.ar    1  UNL1        0.0665
      9 C         145.3775  141.3449  163.8368 C.ar    1  UNL1        0.1432
     10 F         146.7856  141.7252  163.4862 F       1  UNL1       -0.2041
     11 C         145.0451  139.9194  164.1644 C.ar    1  UNL1        0.0298
     12 C         143.6371  139.5392  164.5150 C.ar    1  UNL1        0.0054
     13 C         142.5615  140.5845  164.5380 C.ar    1  UNL1        0.0356
     14 C         142.1713  144.4991  164.0312 C.3     1  UNL1        0.2525
     15 O         141.8184  143.0554  164.2333 O.3     1  UNL1       -0.4714
     16 C         137.5861  139.9882  163.1631 C.3     1  UNL1        0.0971
     17 N         136.8261  141.2670  162.9710 N.3     1  UNL1       -0.2948
     18 H         136.0119  141.2206  163.5838 H       1  UNL1        0.1235
     19 C         137.4938  142.5836  163.2373 C.3     1  UNL1        0.0542
     20 C         137.6880  143.2176  164.5828 C.3     1  UNL1        0.0157
     21 C         138.3987  144.5231  164.3819 C.3     1  UNL1        0.0014
     22 C         138.6439  144.6960  162.9122 C.3     1  UNL1        0.0014
     23 C         138.0846  143.4973  162.2048 C.3     1  UNL1        0.0157
@<TRIPOS>BOND
     1    14    15    1
     2    15     7    1
     3     7     8   ar
     4     8     9   ar
     5     9    10    1
     6     9    11   ar
     7    11    12   ar
     8    12    13   ar
     9    13     1    1
    10     1     2   ar
    11     2     3   ar
    12     3     4   ar
    13     4     5   ar
    14     5    16    1
    15    16    17    1
    16    17    19    1
    17    19    20    1
    18    20    21    1
    19    21    22    1
    20    22    23    1
    21     5     6   ar
    22    13     7   ar
    23     6     1   ar
    24    23    19    1
    25    17    18    1
