@<TRIPOS>MOLECULE
*****
 27 30 0 0 0
SMALL
GASTEIGER

@<TRIPOS>ATOM
      1 O         144.1701  138.3758  160.2092 O.2     1  UNL1       -0.2818
      2 C         143.7336  138.8268  161.5716 C.2     1  UNL1        0.2473
      3 C         142.6836  138.3874  162.5484 C.2     1  UNL1        0.0908
      4 C         143.1163  139.4647  163.4983 C.2     1  UNL1        0.0586
      5 C         144.1664  139.9042  162.5215 C.2     1  UNL1        0.2367
      6 O         145.2148  140.9767  162.5024 O.2     1  UNL1       -0.2831
      7 C         142.6797  139.9157  164.8606 C.ar    1  UNL1        0.0046
      8 C         141.8695  141.1690  165.0119 C.ar    1  UNL1        0.0014
      9 C         141.4330  141.6200  166.3742 C.ar    1  UNL1        0.0145
     10 C         141.8066  140.8177  167.5853 C.ar    1  UNL1        0.0480
     11 C         142.6167  139.5644  167.4341 C.ar    1  UNL1        0.0145
     12 C         143.0533  139.1134  166.0717 C.ar    1  UNL1        0.0014
     13 N         141.3700  141.2687  168.9476 N.pl3   1  UNL1       -0.3028
     14 C         141.8430  140.5353  170.1678 C.3     1  UNL1        0.1231
     15 C         141.4064  140.9863  171.5301 C.3     1  UNL1        0.1636
     16 O         140.4969  142.1706  171.6724 O.3     1  UNL1       -0.3501
     17 C         140.0240  142.9040  170.4524 C.3     1  UNL1        0.1636
     18 C         140.4606  142.4530  169.0899 C.3     1  UNL1        0.1231
     19 N         141.6350  137.3149  162.5675 N.pl3   1  UNL1       -0.3252
     20 H         141.8987  136.3701  162.6526 H       1  UNL1        0.1473
     21 C         140.1848  137.6817  162.4569 C.3     1  UNL1        0.1338
     22 C         139.5187  138.4481  163.5610 C.ar    1  UNL1        0.0788
     23 C         139.4907  137.8877  164.9521 C.ar    1  UNL1        0.0165
     24 C         138.8246  138.6541  166.0561 C.ar    1  UNL1        0.0029
     25 C         138.1865  139.9809  165.7691 C.ar    1  UNL1        0.0207
     26 C         138.2146  140.5413  164.3780 C.ar    1  UNL1        0.0985
     27 N         138.8807  139.7750  163.2740 N.ar    1  UNL1       -0.2464
@<TRIPOS>BOND
     1     1     2    2
     2     2     3    1
     3     3    19    1
     4    19    21    1
     5    21    22    1
     6    22    23   ar
     7    23    24   ar
     8    24    25   ar
     9    25    26   ar
    10    26    27   ar
    11     3     4    2
    12     4     7    1
    13     7     8   ar
    14     8     9   ar
    15     9    10   ar
    16    10    13    1
    17    13    14    1
    18    14    15    1
    19    15    16    1
    20    16    17    1
    21    17    18    1
    22    10    11   ar
    23    11    12   ar
    24     4     5    1
    25     5     6    2
    26     5     2    1
    27    27    22   ar
    28    12     7   ar
    29    18    13    1
    30    19    20    1
@<TRIPOS>MOLECULE
*****
 27 30 0 0 0
SMALL
GASTEIGER

@<TRIPOS>ATOM
      1 O         137.2009  139.6155  160.0493 O.2     1  UNL1       -0.2818
      2 C         137.7536  139.8032  161.4311 C.2     1  UNL1        0.2473
      3 C         138.6293  138.9950  162.3419 C.2     1  UNL1        0.0908
      4 C         138.5353  140.0687  163.3852 C.2     1  UNL1        0.0586
      5 C         137.6595  140.8770  162.4743 C.2     1  UNL1        0.2367
      6 O         136.9738  142.2077  162.5679 O.2     1  UNL1       -0.2831
      7 C         139.0880  140.2563  164.7669 C.ar    1  UNL1        0.0046
      8 C         138.5638  139.4291  165.9032 C.ar    1  UNL1        0.0014
      9 C         139.1165  139.6167  167.2849 C.ar    1  UNL1        0.0145
     10 C         140.1934  140.6316  167.5305 C.ar    1  UNL1        0.0480
     11 C         140.7176  141.4588  166.3943 C.ar    1  UNL1        0.0145
     12 C         140.1649  141.2712  165.0125 C.ar    1  UNL1        0.0014
     13 N         140.7461  140.8192  168.9122 N.pl3   1  UNL1       -0.3028
     14 C         140.0614  141.7438  169.8748 C.3     1  UNL1        0.1231
     15 C         140.6141  141.9314  171.2565 C.3     1  UNL1        0.1636
     16 O         141.8516  141.1945  171.6758 O.3     1  UNL1       -0.3501
     17 C         142.5363  140.2700  170.7133 C.3     1  UNL1        0.1636
     18 C         141.9836  140.0823  169.3315 C.3     1  UNL1        0.1231
     19 N         139.3151  137.6641  162.2484 N.pl3   1  UNL1       -0.3252
     20 H         138.7861  136.8344  162.2807 H       1  UNL1        0.1473
     21 C         140.8068  137.5975  162.1057 C.3     1  UNL1        0.1338
     22 C         141.6889  138.1752  163.1726 C.ar    1  UNL1        0.0788
     23 C         141.6197  137.6421  164.5729 C.ar    1  UNL1        0.0165
     24 C         142.5018  138.2199  165.6397 C.ar    1  UNL1        0.0029
     25 C         143.4530  139.3307  165.3062 C.ar    1  UNL1        0.0207
     26 C         143.5221  139.8638  163.9059 C.ar    1  UNL1        0.0985
     27 N         142.6401  139.2861  162.8391 N.ar    1  UNL1       -0.2464
@<TRIPOS>BOND
     1     1     2    2
     2     2     3    1
     3     3    19    1
     4    19    21    1
     5    21    22    1
     6    22    23   ar
     7    23    24   ar
     8    24    25   ar
     9    25    26   ar
    10    26    27   ar
    11     3     4    2
    12     4     7    1
    13     7     8   ar
    14     8     9   ar
    15     9    10   ar
    16    10    13    1
    17    13    14    1
    18    14    15    1
    19    15    16    1
    20    16    17    1
    21    17    18    1
    22    10    11   ar
    23    11    12   ar
    24     4     5    1
    25     5     6    2
    26     5     2    1
    27    27    22   ar
    28    12     7   ar
    29    18    13    1
    30    19    20    1
@<TRIPOS>MOLECULE
*****
 27 30 0 0 0
SMALL
GASTEIGER

@<TRIPOS>ATOM
      1 O         143.0845  137.4283  160.1075 O.2     1  UNL1       -0.2818
      2 C         142.9171  137.9984  161.4849 C.2     1  UNL1        0.2473
      3 C         143.6378  139.0308  162.3002 C.2     1  UNL1        0.0908
      4 C         142.6805  138.8046  163.4327 C.2     1  UNL1        0.0586
      5 C         141.9598  137.7722  162.6174 C.2     1  UNL1        0.2367
      6 O         140.7734  136.8823  162.8416 O.2     1  UNL1       -0.2831
      7 C         142.5132  139.3747  164.8100 C.ar    1  UNL1        0.0046
      8 C         143.1417  138.6892  165.9869 C.ar    1  UNL1        0.0014
      9 C         142.9744  139.2593  167.3642 C.ar    1  UNL1        0.0145
     10 C         142.1786  140.5149  167.5646 C.ar    1  UNL1        0.0480
     11 C         141.5501  141.2004  166.3877 C.ar    1  UNL1        0.0145
     12 C         141.7174  140.6303  165.0104 C.ar    1  UNL1        0.0014
     13 N         142.0113  141.0850  168.9419 N.pl3   1  UNL1       -0.3028
     14 C         142.7677  142.3176  169.3404 C.3     1  UNL1        0.1231
     15 C         142.6004  142.8877  170.7177 C.3     1  UNL1        0.1636
     16 O         141.6767  142.2253  171.6965 O.3     1  UNL1       -0.3501
     17 C         140.9203  140.9929  171.2980 C.3     1  UNL1        0.1636
     18 C         141.0876  140.4227  169.9207 C.3     1  UNL1        0.1231
     19 N         144.8243  139.9208  162.0760 N.pl3   1  UNL1       -0.3252
     20 H         145.7343  139.5731  162.2182 H       1  UNL1        0.1473
     21 C         144.6242  141.3404  161.6350 C.3     1  UNL1        0.1338
     22 C         144.4461  142.4249  162.6560 C.ar    1  UNL1        0.0788
     23 C         144.8073  142.1719  164.0897 C.ar    1  UNL1        0.0165
     24 C         144.6292  143.2563  165.1106 C.ar    1  UNL1        0.0029
     25 C         144.0899  144.5937  164.6978 C.ar    1  UNL1        0.0207
     26 C         143.7286  144.8467  163.2641 C.ar    1  UNL1        0.0985
     27 N         143.9068  143.7623  162.2432 N.ar    1  UNL1       -0.2464
@<TRIPOS>BOND
     1     1     2    2
     2     2     3    1
     3     3    19    1
     4    19    21    1
     5    21    22    1
     6    22    23   ar
     7    23    24   ar
     8    24    25   ar
     9    25    26   ar
    10    26    27   ar
    11     3     4    2
    12     4     7    1
    13     7     8   ar
    14     8     9   ar
    15     9    10   ar
    16    10    13    1
    17    13    14    1
    18    14    15    1
    19    15    16    1
    20    16    17    1
    21    17    18    1
    22    10    11   ar
    23    11    12   ar
    24     4     5    1
    25     5     6    2
    26     5     2    1
    27    27    22   ar
    28    12     7   ar
    29    18    13    1
    30    19    20    1
@<TRIPOS>MOLECULE
*****
 27 30 0 0 0
SMALL
GASTEIGER

@<TRIPOS>ATOM
      1 O         144.4442  142.6929  159.3708 O.2     1  UNL1       -0.2818
      2 C         143.9083  142.5222  160.7615 C.2     1  UNL1        0.2473
      3 C         143.1279  143.3825  161.7104 C.2     1  UNL1        0.0908
      4 C         143.1506  142.2807  162.7280 C.2     1  UNL1        0.0586
      5 C         143.9311  141.4203  161.7791 C.2     1  UNL1        0.2367
      6 O         144.4990  140.0328  161.8276 O.2     1  UNL1       -0.2831
      7 C         142.6148  142.1100  164.1186 C.ar    1  UNL1        0.0046
      8 C         143.4073  142.6019  165.2934 C.ar    1  UNL1        0.0014
      9 C         142.8715  142.4312  166.6840 C.ar    1  UNL1        0.0145
     10 C         141.5432  141.7687  166.8998 C.ar    1  UNL1        0.0480
     11 C         140.7507  141.2768  165.7251 C.ar    1  UNL1        0.0145
     12 C         141.2865  141.4475  164.3345 C.ar    1  UNL1        0.0014
     13 N         141.0074  141.5980  168.2904 N.pl3   1  UNL1       -0.3028
     14 C         140.9737  140.2366  168.9193 C.3     1  UNL1        0.1231
     15 C         140.4378  140.0659  170.3099 C.3     1  UNL1        0.1636
     16 O         139.9357  141.2566  171.0716 O.3     1  UNL1       -0.3501
     17 C         139.9694  142.6179  170.4427 C.3     1  UNL1        0.1636
     18 C         140.5052  142.7887  169.0521 C.3     1  UNL1        0.1231
     19 N         142.5600  144.7700  161.6619 N.pl3   1  UNL1       -0.3252
     20 H         143.1416  145.5462  161.8308 H       1  UNL1        0.1473
     21 C         141.1059  144.9750  161.3562 C.3     1  UNL1        0.1338
     22 C         140.0735  144.7170  162.4134 C.ar    1  UNL1        0.0788
     23 C         140.4115  144.9292  163.8593 C.ar    1  UNL1        0.0165
     24 C         139.3791  144.6711  164.9165 C.ar    1  UNL1        0.0029
     25 C         138.0088  144.2009  164.5277 C.ar    1  UNL1        0.0207
     26 C         137.6708  143.9887  163.0818 C.ar    1  UNL1        0.0985
     27 N         138.7032  144.2467  162.0247 N.ar    1  UNL1       -0.2464
@<TRIPOS>BOND
     1     1     2    2
     2     2     3    1
     3     3    19    1
     4    19    21    1
     5    21    22    1
     6    22    23   ar
     7    23    24   ar
     8    24    25   ar
     9    25    26   ar
    10    26    27   ar
    11     3     4    2
    12     4     7    1
    13     7     8   ar
    14     8     9   ar
    15     9    10   ar
    16    10    13    1
    17    13    14    1
    18    14    15    1
    19    15    16    1
    20    16    17    1
    21    17    18    1
    22    10    11   ar
    23    11    12   ar
    24     4     5    1
    25     5     6    2
    26     5     2    1
    27    27    22   ar
    28    12     7   ar
    29    18    13    1
    30    19    20    1
@<TRIPOS>MOLECULE
*****
 27 30 0 0 0
SMALL
GASTEIGER

@<TRIPOS>ATOM
      1 O         140.4104  140.8861  171.8478 O.2     1  UNL1       -0.2818
      2 C         140.4792  141.4198  170.4475 C.2     1  UNL1        0.2473
      3 C         140.1485  140.8778  169.0886 C.2     1  UNL1        0.0908
      4 C         140.5763  142.1744  168.4674 C.2     1  UNL1        0.0586
      5 C         140.9071  142.7164  169.8264 C.2     1  UNL1        0.2367
      6 O         141.4435  144.0164  170.3481 O.2     1  UNL1       -0.2831
      7 C         140.6450  142.7079  167.0672 C.ar    1  UNL1        0.0046
      8 C         139.5256  143.5492  166.5294 C.ar    1  UNL1        0.0014
      9 C         139.5943  144.0827  165.1292 C.ar    1  UNL1        0.0145
     10 C         140.7824  143.7751  164.2668 C.ar    1  UNL1        0.0480
     11 C         141.9018  142.9339  164.8046 C.ar    1  UNL1        0.0145
     12 C         141.8332  142.4003  166.2048 C.ar    1  UNL1        0.0014
     13 N         140.8511  144.3086  162.8666 N.pl3   1  UNL1       -0.3028
     14 C         139.9429  145.4252  162.4440 C.3     1  UNL1        0.1231
     15 C         140.0116  145.9588  161.0438 C.3     1  UNL1        0.1636
     16 O         140.9885  145.3758  160.0662 O.3     1  UNL1       -0.3501
     17 C         141.8967  144.2593  160.4887 C.3     1  UNL1        0.1636
     18 C         141.8280  143.7256  161.8889 C.3     1  UNL1        0.1231
     19 N         139.6120  139.5778  168.5668 N.pl3   1  UNL1       -0.3252
     20 H         139.8939  138.7286  168.9776 H       1  UNL1        0.1473
     21 C         138.6462  139.5715  167.4192 C.3     1  UNL1        0.1338
     22 C         139.1497  139.7233  166.0144 C.ar    1  UNL1        0.0788
     23 C         138.3169  140.4386  164.9923 C.ar    1  UNL1        0.0165
     24 C         138.8204  140.5904  163.5876 C.ar    1  UNL1        0.0029
     25 C         140.1567  140.0267  163.2048 C.ar    1  UNL1        0.0207
     26 C         140.9895  139.3113  164.2268 C.ar    1  UNL1        0.0985
     27 N         140.4860  139.1596  165.6316 N.ar    1  UNL1       -0.2464
@<TRIPOS>BOND
     1     1     2    2
     2     2     3    1
     3     3    19    1
     4    19    21    1
     5    21    22    1
     6    22    23   ar
     7    23    24   ar
     8    24    25   ar
     9    25    26   ar
    10    26    27   ar
    11     3     4    2
    12     4     7    1
    13     7     8   ar
    14     8     9   ar
    15     9    10   ar
    16    10    13    1
    17    13    14    1
    18    14    15    1
    19    15    16    1
    20    16    17    1
    21    17    18    1
    22    10    11   ar
    23    11    12   ar
    24     4     5    1
    25     5     6    2
    26     5     2    1
    27    27    22   ar
    28    12     7   ar
    29    18    13    1
    30    19    20    1
@<TRIPOS>MOLECULE
*****
 27 30 0 0 0
SMALL
GASTEIGER

@<TRIPOS>ATOM
      1 O         141.8751  141.9527  172.0324 O.2     1  UNL1       -0.2818
      2 C         142.1282  141.5934  170.5982 C.2     1  UNL1        0.2473
      3 C         141.4541  140.7092  169.5915 C.2     1  UNL1        0.0908
      4 C         142.4861  141.0853  168.5700 C.2     1  UNL1        0.0586
      5 C         143.1602  141.9696  169.5767 C.2     1  UNL1        0.2367
      6 O         144.3667  142.8609  169.5663 O.2     1  UNL1       -0.2831
      7 C         142.7391  140.7261  167.1358 C.ar    1  UNL1        0.0046
      8 C         143.0222  141.8036  166.1314 C.ar    1  UNL1        0.0014
      9 C         143.2752  141.4443  164.6972 C.ar    1  UNL1        0.0145
     10 C         143.2451  140.0075  164.2674 C.ar    1  UNL1        0.0480
     11 C         142.9621  138.9300  165.2718 C.ar    1  UNL1        0.0145
     12 C         142.7090  139.2893  166.7060 C.ar    1  UNL1        0.0014
     13 N         143.4982  139.6482  162.8333 N.pl3   1  UNL1       -0.3028
     14 C         143.7316  140.7288  161.8193 C.3     1  UNL1        0.1231
     15 C         143.9846  140.3695  160.3851 C.3     1  UNL1        0.1636
     16 O         144.0042  138.9297  159.9649 O.3     1  UNL1       -0.3501
     17 C         143.7708  137.8492  160.9787 C.3     1  UNL1        0.1636
     18 C         143.5178  138.2085  162.4130 C.3     1  UNL1        0.1231
     19 N         140.2476  139.8178  169.6019 N.pl3   1  UNL1       -0.3252
     20 H         140.2378  139.0092  170.1634 H       1  UNL1        0.1473
     21 C         139.0561  140.1585  168.7568 C.3     1  UNL1        0.1338
     22 C         139.1019  139.9412  167.2733 C.ar    1  UNL1        0.0788
     23 C         138.7556  138.5986  166.7009 C.ar    1  UNL1        0.0165
     24 C         138.8015  138.3813  165.2175 C.ar    1  UNL1        0.0029
     25 C         139.1936  139.5065  164.3064 C.ar    1  UNL1        0.0207
     26 C         139.5400  140.8490  164.8787 C.ar    1  UNL1        0.0985
     27 N         139.4941  141.0664  166.3622 N.ar    1  UNL1       -0.2464
@<TRIPOS>BOND
     1     1     2    2
     2     2     3    1
     3     3    19    1
     4    19    21    1
     5    21    22    1
     6    22    23   ar
     7    23    24   ar
     8    24    25   ar
     9    25    26   ar
    10    26    27   ar
    11     3     4    2
    12     4     7    1
    13     7     8   ar
    14     8     9   ar
    15     9    10   ar
    16    10    13    1
    17    13    14    1
    18    14    15    1
    19    15    16    1
    20    16    17    1
    21    17    18    1
    22    10    11   ar
    23    11    12   ar
    24     4     5    1
    25     5     6    2
    26     5     2    1
    27    27    22   ar
    28    12     7   ar
    29    18    13    1
    30    19    20    1
@<TRIPOS>MOLECULE
*****
 27 30 0 0 0
SMALL
GASTEIGER

@<TRIPOS>ATOM
      1 O         140.3904  142.0145  172.1506 O.2     1  UNL1       -0.2818
      2 C         140.1772  141.6461  170.7122 C.2     1  UNL1        0.2473
      3 C         140.8485  141.9955  169.4172 C.2     1  UNL1        0.0908
      4 C         139.8757  141.1252  168.6781 C.2     1  UNL1        0.0586
      5 C         139.2043  140.7758  169.9732 C.2     1  UNL1        0.2367
      6 O         138.0417  139.9134  170.3663 O.2     1  UNL1       -0.2831
      7 C         139.6625  140.7568  167.2398 C.ar    1  UNL1        0.0046
      8 C         139.7526  141.8093  166.1747 C.ar    1  UNL1        0.0014
      9 C         139.5394  141.4410  164.7364 C.ar    1  UNL1        0.0145
     10 C         139.2362  140.0202  164.3630 C.ar    1  UNL1        0.0480
     11 C         139.1461  138.9677  165.4280 C.ar    1  UNL1        0.0145
     12 C         139.3593  139.3360  166.8664 C.ar    1  UNL1        0.0014
     13 N         139.0231  139.6518  162.9247 N.pl3   1  UNL1       -0.3028
     14 C         140.0370  138.8105  162.2077 C.3     1  UNL1        0.1231
     15 C         139.8239  138.4421  160.7694 C.3     1  UNL1        0.1636
     16 O         138.5968  138.9151  160.0479 O.3     1  UNL1       -0.3501
     17 C         137.5828  139.7564  160.7648 C.3     1  UNL1        0.1636
     18 C         137.7959  140.1248  162.2032 C.3     1  UNL1        0.1231
     19 N         142.0111  142.8579  169.0240 N.pl3   1  UNL1       -0.3252
     20 H         141.9499  143.8366  169.1116 H       1  UNL1        0.1473
     21 C         143.2670  142.2292  168.4972 C.3     1  UNL1        0.1338
     22 C         143.1907  141.1969  167.4115 C.ar    1  UNL1        0.0788
     23 C         143.1986  141.6200  165.9725 C.ar    1  UNL1        0.0165
     24 C         143.1222  140.5877  164.8869 C.ar    1  UNL1        0.0029
     25 C         143.0380  139.1324  165.2403 C.ar    1  UNL1        0.0207
     26 C         143.0301  138.7093  166.6794 C.ar    1  UNL1        0.0985
     27 N         143.1064  139.7416  167.7650 N.ar    1  UNL1       -0.2464
@<TRIPOS>BOND
     1     1     2    2
     2     2     3    1
     3     3    19    1
     4    19    21    1
     5    21    22    1
     6    22    23   ar
     7    23    24   ar
     8    24    25   ar
     9    25    26   ar
    10    26    27   ar
    11     3     4    2
    12     4     7    1
    13     7     8   ar
    14     8     9   ar
    15     9    10   ar
    16    10    13    1
    17    13    14    1
    18    14    15    1
    19    15    16    1
    20    16    17    1
    21    17    18    1
    22    10    11   ar
    23    11    12   ar
    24     4     5    1
    25     5     6    2
    26     5     2    1
    27    27    22   ar
    28    12     7   ar
    29    18    13    1
    30    19    20    1
@<TRIPOS>MOLECULE
*****
 27 30 0 0 0
SMALL
GASTEIGER

@<TRIPOS>ATOM
      1 O         139.1585  138.0770  159.6425 O.2     1  UNL1       -0.2818
      2 C         139.3188  138.5813  161.0461 C.2     1  UNL1        0.2473
      3 C         138.7195  139.6995  161.8462 C.2     1  UNL1        0.0908
      4 C         139.5454  139.2944  163.0310 C.2     1  UNL1        0.0586
      5 C         140.1448  138.1762  162.2309 C.2     1  UNL1        0.2367
      6 O         141.1526  137.0990  162.5029 O.2     1  UNL1       -0.2831
      7 C         139.7056  139.7987  164.4345 C.ar    1  UNL1        0.0046
      8 C         138.9965  139.1117  165.5639 C.ar    1  UNL1        0.0014
      9 C         139.1567  139.6160  166.9674 C.ar    1  UNL1        0.0145
     10 C         140.0260  140.8073  167.2417 C.ar    1  UNL1        0.0480
     11 C         140.7350  141.4943  166.1125 C.ar    1  UNL1        0.0145
     12 C         140.5748  140.9900  164.7088 C.ar    1  UNL1        0.0014
     13 N         140.1862  141.3116  168.6453 N.pl3   1  UNL1       -0.3028
     14 C         140.3193  140.3403  169.7806 C.3     1  UNL1        0.1231
     15 C         140.4795  140.8446  171.1842 C.3     1  UNL1        0.1636
     16 O         140.5066  142.3202  171.4524 O.3     1  UNL1       -0.3501
     17 C         140.3735  143.2914  170.3172 C.3     1  UNL1        0.1636
     18 C         140.2133  142.7872  168.9135 C.3     1  UNL1        0.1231
     19 N         137.7116  140.7767  161.5742 N.pl3   1  UNL1       -0.3252
     20 H         136.7533  140.5550  161.5324 H       1  UNL1        0.1473
     21 C         138.1638  142.1917  161.3661 C.3     1  UNL1        0.1338
     22 C         138.4639  143.0648  162.5484 C.ar    1  UNL1        0.0788
     23 C         137.5733  143.0260  163.7547 C.ar    1  UNL1        0.0165
     24 C         137.8734  143.8991  164.9369 C.ar    1  UNL1        0.0029
     25 C         139.0642  144.8109  164.9128 C.ar    1  UNL1        0.0207
     26 C         139.9549  144.8496  163.7065 C.ar    1  UNL1        0.0985
     27 N         139.6548  143.9766  162.5243 N.ar    1  UNL1       -0.2464
@<TRIPOS>BOND
     1     1     2    2
     2     2     3    1
     3     3    19    1
     4    19    21    1
     5    21    22    1
     6    22    23   ar
     7    23    24   ar
     8    24    25   ar
     9    25    26   ar
    10    26    27   ar
    11     3     4    2
    12     4     7    1
    13     7     8   ar
    14     8     9   ar
    15     9    10   ar
    16    10    13    1
    17    13    14    1
    18    14    15    1
    19    15    16    1
    20    16    17    1
    21    17    18    1
    22    10    11   ar
    23    11    12   ar
    24     4     5    1
    25     5     6    2
    26     5     2    1
    27    27    22   ar
    28    12     7   ar
    29    18    13    1
    30    19    20    1
@<TRIPOS>MOLECULE
*****
 27 30 0 0 0
SMALL
GASTEIGER

@<TRIPOS>ATOM
      1 O         143.4248  143.4008  159.6101 O.2     1  UNL1       -0.2818
      2 C         143.0916  143.2231  161.0618 C.2     1  UNL1        0.2473
      3 C         142.2736  142.2437  161.8501 C.2     1  UNL1        0.0908
      4 C         142.6203  142.9719  163.1148 C.2     1  UNL1        0.0586
      5 C         143.4383  143.9515  162.3265 C.2     1  UNL1        0.2367
      6 O         144.2618  145.1591  162.6633 O.2     1  UNL1       -0.2831
      7 C         142.2870  142.7943  164.5664 C.ar    1  UNL1        0.0046
      8 C         140.8612  142.8800  165.0246 C.ar    1  UNL1        0.0014
      9 C         140.5280  142.7023  166.4762 C.ar    1  UNL1        0.0145
     10 C         141.6205  142.4389  167.4698 C.ar    1  UNL1        0.0480
     11 C         143.0462  142.3532  167.0117 C.ar    1  UNL1        0.0145
     12 C         143.3795  142.5308  165.5600 C.ar    1  UNL1        0.0014
     13 N         141.2872  142.2613  168.9214 N.pl3   1  UNL1       -0.3028
     14 C         140.2300  143.1140  169.5581 C.3     1  UNL1        0.1231
     15 C         139.8968  142.9363  171.0097 C.3     1  UNL1        0.1636
     16 O         140.6206  141.9059  171.8248 O.3     1  UNL1       -0.3501
     17 C         141.6778  141.0532  171.1882 C.3     1  UNL1        0.1636
     18 C         142.0111  141.2309  169.7365 C.3     1  UNL1        0.1231
     19 N         141.4501  141.0360  161.5133 N.pl3   1  UNL1       -0.3252
     20 H         140.6051  141.1388  161.0187 H       1  UNL1        0.1473
     21 C         141.9140  139.6718  161.9300 C.3     1  UNL1        0.1338
     22 C         142.2024  139.3864  163.3741 C.ar    1  UNL1        0.0788
     23 C         143.6150  139.1645  163.8272 C.ar    1  UNL1        0.0165
     24 C         143.9033  138.8790  165.2712 C.ar    1  UNL1        0.0029
     25 C         142.7791  138.8155  166.2622 C.ar    1  UNL1        0.0207
     26 C         141.3665  139.0374  165.8091 C.ar    1  UNL1        0.0985
     27 N         141.0782  139.3228  164.3651 N.ar    1  UNL1       -0.2464
@<TRIPOS>BOND
     1     1     2    2
     2     2     3    1
     3     3    19    1
     4    19    21    1
     5    21    22    1
     6    22    23   ar
     7    23    24   ar
     8    24    25   ar
     9    25    26   ar
    10    26    27   ar
    11     3     4    2
    12     4     7    1
    13     7     8   ar
    14     8     9   ar
    15     9    10   ar
    16    10    13    1
    17    13    14    1
    18    14    15    1
    19    15    16    1
    20    16    17    1
    21    17    18    1
    22    10    11   ar
    23    11    12   ar
    24     4     5    1
    25     5     6    2
    26     5     2    1
    27    27    22   ar
    28    12     7   ar
    29    18    13    1
    30    19    20    1
