@<TRIPOS>MOLECULE
*****
 32 36 0 0 0
SMALL
GASTEIGER

@<TRIPOS>ATOM
      1 O         137.5903  140.4471  162.6741 O.2     1  UNL1       -0.2748
      2 C         138.5120  141.3298  163.4622 C.2     1  UNL1        0.2274
      3 N         138.8749  140.9670  164.8717 N.am    1  UNL1       -0.2749
      4 C         138.3159  139.7215  165.4932 C.3     1  UNL1        0.1000
      5 C         138.6787  139.3587  166.9026 C.3     1  UNL1        0.0670
      6 C         139.6005  140.2415  167.6907 C.ar    1  UNL1        0.0583
      7 N         139.9633  139.8787  169.1003 N.ar    1  UNL1       -0.2484
      8 C         140.8851  140.7614  169.8884 C.ar    1  UNL1        0.1023
      9 C         141.4441  142.0070  169.2669 C.ar    1  UNL1        0.0902
     10 C         141.0812  142.3698  167.8574 C.ar    1  UNL1        0.0040
     11 C         140.1595  141.4870  167.0693 C.ar    1  UNL1        0.0113
     12 C         139.7966  141.8498  165.6598 C.3     1  UNL1        0.1213
     13 C         139.0710  142.5754  162.8408 C.3     1  UNL1        0.0976
     14 C         137.7531  142.9215  163.4679 C.3     1  UNL1        0.0431
     15 C         137.4975  144.3810  163.2341 C.3     1  UNL1        0.1426
     16 O         138.6574  144.9369  162.4624 O.3     1  UNL1       -0.3557
     17 C         139.6299  143.8210  162.2193 C.3     1  UNL1        0.1247
     18 C         140.9478  143.4749  161.5922 C.3     1  UNL1        0.0457
     19 C         141.2034  142.0154  161.8260 C.3     1  UNL1        0.0569
     20 C         140.0434  141.4595  162.5977 C.3     1  UNL1        0.0269
     21 N         142.4076  141.2468  161.3685 N.3     1  UNL1       -0.2994
     22 H         142.8075  141.7646  160.5859 H       1  UNL1        0.1232
     23 C         143.5300  140.9722  162.3249 C.3     1  UNL1        0.0590
     24 C         143.5425  139.7014  163.1215 C.3     1  UNL1        0.0478
     25 C         144.6650  139.4268  164.0780 C.3     1  UNL1        0.1435
     26 O         145.7749  140.4231  164.2377 O.3     1  UNL1       -0.3537
     27 C         145.7623  141.6940  163.4410 C.3     1  UNL1        0.1435
     28 C         144.6399  141.9686  162.4846 C.3     1  UNL1        0.0478
     29 C         142.3658  142.8898  170.0549 C.3     1  UNL1        0.4200
     30 F         143.2876  143.7726  170.8430 F       1  UNL1       -0.1658
     31 F         141.3459  143.9890  170.0167 F       1  UNL1       -0.1658
     32 F         143.3858  141.7906  170.0932 F       1  UNL1       -0.1658
@<TRIPOS>BOND
     1     1     2    2
     2     2     3   am
     3     3     4    1
     4     4     5    1
     5     5     6    1
     6     6     7   ar
     7     7     8   ar
     8     8     9   ar
     9     9    29    1
    10    29    30    1
    11    29    31    1
    12    29    32    1
    13     9    10   ar
    14    10    11   ar
    15    11    12    1
    16    13     2    1
    17    13    14    1
    18    14    15    1
    19    15    16    1
    20    16    17    1
    21    17    18    1
    22    18    19    1
    23    19    21    1
    24    21    23    1
    25    23    24    1
    26    24    25    1
    27    25    26    1
    28    26    27    1
    29    27    28    1
    30    19    20    1
    31    12     3    1
    32    17    13    1
    33    28    23    1
    34    11     6   ar
    35    20    13    1
    36    21    22    1
@<TRIPOS>MOLECULE
*****
 32 36 0 0 0
SMALL
GASTEIGER

@<TRIPOS>ATOM
      1 O         143.3934  138.7283  168.0772 O.2     1  UNL1       -0.2748
      2 C         142.5677  139.9222  167.6993 C.2     1  UNL1        0.2274
      3 N         142.7444  140.5606  166.3534 N.am    1  UNL1       -0.2749
      4 C         143.7468  140.0051  165.3856 C.3     1  UNL1        0.1000
      5 C         143.9234  140.6435  164.0398 C.3     1  UNL1        0.0670
      6 C         143.0977  141.8374  163.6618 C.ar    1  UNL1        0.0583
      7 N         143.2744  142.4758  162.3160 N.ar    1  UNL1       -0.2484
      8 C         142.4488  143.6697  161.9380 C.ar    1  UNL1        0.1023
      9 C         141.4464  144.2252  162.9059 C.ar    1  UNL1        0.0902
     10 C         141.2697  143.5868  164.2517 C.ar    1  UNL1        0.0040
     11 C         142.0954  142.3929  164.6296 C.ar    1  UNL1        0.0113
     12 C         141.9188  141.7545  165.9754 C.3     1  UNL1        0.1213
     13 C         141.5654  140.4777  168.6671 C.3     1  UNL1        0.0976
     14 C         142.9299  140.9150  169.1109 C.3     1  UNL1        0.0431
     15 C         142.7709  141.7407  170.3531 C.3     1  UNL1        0.1426
     16 O         141.3081  141.8138  170.6769 O.3     1  UNL1       -0.3557
     17 C         140.5630  141.0333  169.6350 C.3     1  UNL1        0.1247
     18 C         139.1986  140.5961  169.1911 C.3     1  UNL1        0.0457
     19 C         139.3576  139.7703  167.9490 C.3     1  UNL1        0.0569
     20 C         140.8204  139.6972  167.6251 C.3     1  UNL1        0.0269
     21 N         138.2485  139.1301  167.1679 N.3     1  UNL1       -0.2994
     22 H         137.4023  139.6639  167.3664 H       1  UNL1        0.1232
     23 C         138.3497  139.0183  165.6755 C.3     1  UNL1        0.0590
     24 C         138.0525  140.2085  164.8124 C.3     1  UNL1        0.0478
     25 C         138.1537  140.0968  163.3199 C.3     1  UNL1        0.1435
     26 O         138.5522  138.7947  162.6907 O.3     1  UNL1       -0.3537
     27 C         138.8494  137.6045  163.5539 C.3     1  UNL1        0.1435
     28 C         138.7481  137.7163  165.0462 C.3     1  UNL1        0.0478
     29 C         140.6207  145.4191  162.5279 C.3     1  UNL1        0.4200
     30 F         139.7950  146.6130  162.1499 F       1  UNL1       -0.1658
     31 F         139.9370  145.3687  163.8621 F       1  UNL1       -0.1658
     32 F         141.3044  145.4696  161.1937 F       1  UNL1       -0.1658
@<TRIPOS>BOND
     1     1     2    2
     2     2     3   am
     3     3     4    1
     4     4     5    1
     5     5     6    1
     6     6     7   ar
     7     7     8   ar
     8     8     9   ar
     9     9    29    1
    10    29    30    1
    11    29    31    1
    12    29    32    1
    13     9    10   ar
    14    10    11   ar
    15    11    12    1
    16    13     2    1
    17    13    14    1
    18    14    15    1
    19    15    16    1
    20    16    17    1
    21    17    18    1
    22    18    19    1
    23    19    21    1
    24    21    23    1
    25    23    24    1
    26    24    25    1
    27    25    26    1
    28    26    27    1
    29    27    28    1
    30    19    20    1
    31    12     3    1
    32    17    13    1
    33    28    23    1
    34    11     6   ar
    35    20    13    1
    36    21    22    1
@<TRIPOS>MOLECULE
*****
 32 36 0 0 0
SMALL
GASTEIGER

@<TRIPOS>ATOM
      1 O         142.6063  143.0970  161.3665 O.2     1  UNL1       -0.2748
      2 C         141.6238  143.2478  162.4899 C.2     1  UNL1        0.2274
      3 N         142.0535  142.9838  163.9026 N.am    1  UNL1       -0.2749
      4 C         143.4657  142.5690  164.1919 C.3     1  UNL1        0.1000
      5 C         143.8953  142.3051  165.6046 C.3     1  UNL1        0.0670
      6 C         142.9128  142.4559  166.7279 C.ar    1  UNL1        0.0583
      7 N         143.3426  142.1919  168.1407 N.ar    1  UNL1       -0.2484
      8 C         142.3601  142.3428  169.2640 C.ar    1  UNL1        0.1023
      9 C         140.9479  142.7576  168.9747 C.ar    1  UNL1        0.0902
     10 C         140.5182  143.0215  167.5620 C.ar    1  UNL1        0.0040
     11 C         141.5007  142.8707  166.4387 C.ar    1  UNL1        0.0113
     12 C         141.0710  143.1347  165.0260 C.3     1  UNL1        0.1213
     13 C         140.2116  143.6626  162.2006 C.3     1  UNL1        0.0976
     14 C         141.0593  144.8995  162.2395 C.3     1  UNL1        0.0431
     15 C         140.1710  146.0788  161.9743 C.3     1  UNL1        0.1426
     16 O         138.7744  145.5707  161.7714 O.3     1  UNL1       -0.3557
     17 C         138.7994  144.0774  161.9113 C.3     1  UNL1        0.1247
     18 C         137.9518  142.8406  161.8723 C.3     1  UNL1        0.0457
     19 C         138.8400  141.6613  162.1376 C.3     1  UNL1        0.0569
     20 C         140.2367  142.1693  162.3404 C.3     1  UNL1        0.0269
     21 N         138.4075  140.2259  162.1906 N.3     1  UNL1       -0.2994
     22 H         138.9922  139.7175  161.5272 H       1  UNL1        0.1232
     23 C         138.4666  139.4722  163.4861 C.3     1  UNL1        0.0590
     24 C         138.8497  138.0220  163.4932 C.3     1  UNL1        0.0478
     25 C         138.9088  137.2682  164.7888 C.3     1  UNL1        0.1435
     26 O         138.5848  137.9647  166.0772 O.3     1  UNL1       -0.3537
     27 C         138.2017  139.4150  166.0700 C.3     1  UNL1        0.1435
     28 C         138.1426  140.1687  164.7745 C.3     1  UNL1        0.0478
     29 C         139.9654  142.9084  170.0981 C.3     1  UNL1        0.4200
     30 F         138.9829  143.0592  171.2214 F       1  UNL1       -0.1658
     31 F         139.6937  141.4337  170.0585 F       1  UNL1       -0.1658
     32 F         140.2370  144.3831  170.1377 F       1  UNL1       -0.1658
@<TRIPOS>BOND
     1     1     2    2
     2     2     3   am
     3     3     4    1
     4     4     5    1
     5     5     6    1
     6     6     7   ar
     7     7     8   ar
     8     8     9   ar
     9     9    29    1
    10    29    30    1
    11    29    31    1
    12    29    32    1
    13     9    10   ar
    14    10    11   ar
    15    11    12    1
    16    13     2    1
    17    13    14    1
    18    14    15    1
    19    15    16    1
    20    16    17    1
    21    17    18    1
    22    18    19    1
    23    19    21    1
    24    21    23    1
    25    23    24    1
    26    24    25    1
    27    25    26    1
    28    26    27    1
    29    27    28    1
    30    19    20    1
    31    12     3    1
    32    17    13    1
    33    28    23    1
    34    11     6   ar
    35    20    13    1
    36    21    22    1
@<TRIPOS>MOLECULE
*****
 32 36 0 0 0
SMALL
GASTEIGER

@<TRIPOS>ATOM
      1 O         142.7657  138.1653  166.1738 O.2     1  UNL1       -0.2748
      2 C         141.7793  139.0867  165.5196 C.2     1  UNL1        0.2274
      3 N         142.2309  140.4162  164.9916 N.am    1  UNL1       -0.2749
      4 C         143.6688  140.8241  165.1177 C.3     1  UNL1        0.1000
      5 C         144.1204  142.1534  164.5897 C.3     1  UNL1        0.0670
      6 C         143.1340  143.0749  163.9355 C.ar    1  UNL1        0.0583
      7 N         143.5856  144.4043  163.4075 N.ar    1  UNL1       -0.2484
      8 C         142.5992  145.3258  162.7533 C.ar    1  UNL1        0.1023
      9 C         141.1613  144.9178  162.6272 C.ar    1  UNL1        0.0902
     10 C         140.7097  143.5885  163.1552 C.ar    1  UNL1        0.0040
     11 C         141.6961  142.6670  163.8094 C.ar    1  UNL1        0.0113
     12 C         141.2446  141.3376  164.3374 C.3     1  UNL1        0.1213
     13 C         140.3414  138.6788  165.3934 C.3     1  UNL1        0.0976
     14 C         141.0570  138.2460  164.1482 C.3     1  UNL1        0.0431
     15 C         140.0613  137.5706  163.2524 C.3     1  UNL1        0.1426
     16 O         138.7303  137.5860  163.9440 O.3     1  UNL1       -0.3557
     17 C         138.9034  138.2709  165.2672 C.3     1  UNL1        0.1247
     18 C         138.1879  138.7037  166.5124 C.3     1  UNL1        0.0457
     19 C         139.1836  139.3791  167.4082 C.3     1  UNL1        0.0569
     20 C         140.5145  139.3637  166.7166 C.3     1  UNL1        0.0269
     21 N         138.8983  139.9668  168.7586 N.3     1  UNL1       -0.2994
     22 H         138.6848  139.1866  169.3801 H       1  UNL1        0.1232
     23 C         139.9380  140.7986  169.4494 C.3     1  UNL1        0.0590
     24 C         140.0712  142.2563  169.1219 C.3     1  UNL1        0.0478
     25 C         141.1108  143.0882  169.8127 C.3     1  UNL1        0.1435
     26 O         142.0173  142.4623  170.8309 O.3     1  UNL1       -0.3537
     27 C         141.8840  141.0045  171.1583 C.3     1  UNL1        0.1435
     28 C         140.8444  140.1727  170.4675 C.3     1  UNL1        0.0478
     29 C         140.1749  145.8393  161.9730 C.3     1  UNL1        0.4200
     30 F         139.1885  146.7608  161.3188 F       1  UNL1       -0.1658
     31 F         141.0044  145.8401  160.7233 F       1  UNL1       -0.1658
     32 F         139.3453  145.8385  163.2227 F       1  UNL1       -0.1658
@<TRIPOS>BOND
     1     1     2    2
     2     2     3   am
     3     3     4    1
     4     4     5    1
     5     5     6    1
     6     6     7   ar
     7     7     8   ar
     8     8     9   ar
     9     9    29    1
    10    29    30    1
    11    29    31    1
    12    29    32    1
    13     9    10   ar
    14    10    11   ar
    15    11    12    1
    16    13     2    1
    17    13    14    1
    18    14    15    1
    19    15    16    1
    20    16    17    1
    21    17    18    1
    22    18    19    1
    23    19    21    1
    24    21    23    1
    25    23    24    1
    26    24    25    1
    27    25    26    1
    28    26    27    1
    29    27    28    1
    30    19    20    1
    31    12     3    1
    32    17    13    1
    33    28    23    1
    34    11     6   ar
    35    20    13    1
    36    21    22    1
@<TRIPOS>MOLECULE
*****
 32 36 0 0 0
SMALL
GASTEIGER

@<TRIPOS>ATOM
      1 O         142.3210  137.8605  161.9585 O.2     1  UNL1       -0.2748
      2 C         141.4218  138.6634  162.8511 C.2     1  UNL1        0.2274
      3 N         141.7995  138.8943  164.2843 N.am    1  UNL1       -0.2749
      4 C         143.0763  138.3222  164.8250 C.3     1  UNL1        0.1000
      5 C         143.4539  138.5531  166.2582 C.3     1  UNL1        0.0670
      6 C         142.5547  139.3560  167.1507 C.ar    1  UNL1        0.0583
      7 N         142.9324  139.5869  168.5840 N.ar    1  UNL1       -0.2484
      8 C         142.0331  140.3898  169.4765 C.ar    1  UNL1        0.1023
      9 C         140.7562  140.9619  168.9358 C.ar    1  UNL1        0.0902
     10 C         140.3786  140.7311  167.5026 C.ar    1  UNL1        0.0040
     11 C         141.2778  139.9281  166.6101 C.ar    1  UNL1        0.0113
     12 C         140.9002  139.6972  165.1769 C.3     1  UNL1        0.1213
     13 C         140.1449  139.2355  162.3104 C.3     1  UNL1        0.0976
     14 C         139.8326  137.9027  162.9236 C.3     1  UNL1        0.0431
     15 C         138.3627  137.6510  162.7619 C.3     1  UNL1        0.1426
     16 O         137.7666  138.8283  162.0488 O.3     1  UNL1       -0.3557
     17 C         138.8680  139.8076  161.7698 C.3     1  UNL1        0.1247
     18 C         139.1803  141.1404  161.1566 C.3     1  UNL1        0.0457
     19 C         140.6502  141.3921  161.3183 C.3     1  UNL1        0.0569
     20 C         141.2464  140.2148  162.0314 C.3     1  UNL1        0.0269
     21 N         141.3934  142.6077  160.8492 N.3     1  UNL1       -0.2994
     22 H         140.7246  143.1819  160.3359 H       1  UNL1        0.1232
     23 C         142.0628  143.5082  161.8448 C.3     1  UNL1        0.0590
     24 C         141.2352  144.3695  162.7520 C.3     1  UNL1        0.0478
     25 C         141.9045  145.2700  163.7477 C.3     1  UNL1        0.1435
     26 O         143.4014  145.3091  163.8359 O.3     1  UNL1       -0.3537
     27 C         144.2290  144.4477  162.9286 C.3     1  UNL1        0.1435
     28 C         143.5596  143.5473  161.9330 C.3     1  UNL1        0.0478
     29 C         139.8570  141.7649  169.8283 C.3     1  UNL1        0.4200
     30 F         138.9578  142.5679  170.7209 F       1  UNL1       -0.1658
     31 F         138.7964  140.7110  169.7080 F       1  UNL1       -0.1658
     32 F         140.9176  142.8188  169.9487 F       1  UNL1       -0.1658
@<TRIPOS>BOND
     1     1     2    2
     2     2     3   am
     3     3     4    1
     4     4     5    1
     5     5     6    1
     6     6     7   ar
     7     7     8   ar
     8     8     9   ar
     9     9    29    1
    10    29    30    1
    11    29    31    1
    12    29    32    1
    13     9    10   ar
    14    10    11   ar
    15    11    12    1
    16    13     2    1
    17    13    14    1
    18    14    15    1
    19    15    16    1
    20    16    17    1
    21    17    18    1
    22    18    19    1
    23    19    21    1
    24    21    23    1
    25    23    24    1
    26    24    25    1
    27    25    26    1
    28    26    27    1
    29    27    28    1
    30    19    20    1
    31    12     3    1
    32    17    13    1
    33    28    23    1
    34    11     6   ar
    35    20    13    1
    36    21    22    1
@<TRIPOS>MOLECULE
*****
 32 36 0 0 0
SMALL
GASTEIGER

@<TRIPOS>ATOM
      1 O         137.6974  140.1728  162.7953 O.2     1  UNL1       -0.2748
      2 C         138.6306  141.0649  163.5590 C.2     1  UNL1        0.2274
      3 N         138.9394  140.7716  164.9974 N.am    1  UNL1       -0.2749
      4 C         138.3150  139.5863  165.6719 C.3     1  UNL1        0.1000
      5 C         138.6238  139.2930  167.1102 C.3     1  UNL1        0.0670
      6 C         139.5570  140.1851  167.8739 C.ar    1  UNL1        0.0583
      7 N         139.8658  139.8919  169.3122 N.ar    1  UNL1       -0.2484
      8 C         140.7990  140.7840  170.0759 C.ar    1  UNL1        0.1023
      9 C         141.4234  141.9694  169.4013 C.ar    1  UNL1        0.0902
     10 C         141.1146  142.2626  167.9631 C.ar    1  UNL1        0.0040
     11 C         140.1814  141.3705  167.1993 C.ar    1  UNL1        0.0113
     12 C         139.8726  141.6637  165.7611 C.3     1  UNL1        0.1213
     13 C         139.2550  142.2502  162.8845 C.3     1  UNL1        0.0976
     14 C         137.8768  142.6422  163.3282 C.3     1  UNL1        0.0431
     15 C         137.6494  144.0698  162.9279 C.3     1  UNL1        0.1426
     16 O         138.8871  144.5601  162.2368 O.3     1  UNL1       -0.3557
     17 C         139.8794  143.4356  162.2099 C.3     1  UNL1        0.1247
     18 C         141.2576  143.0436  161.7662 C.3     1  UNL1        0.0457
     19 C         141.4850  141.6160  162.1665 C.3     1  UNL1        0.0569
     20 C         140.2473  141.1257  162.8577 C.3     1  UNL1        0.0269
     21 N         142.7313  140.8188  161.9191 N.3     1  UNL1       -0.2994
     22 H         142.7180  140.0397  162.5774 H       1  UNL1        0.1232
     23 C         142.9910  140.2347  160.5622 C.3     1  UNL1        0.0590
     24 C         143.7679  141.0170  159.5451 C.3     1  UNL1        0.0478
     25 C         144.0277  140.4330  158.1881 C.3     1  UNL1        0.1435
     26 O         143.5105  139.0667  157.8481 O.3     1  UNL1       -0.3537
     27 C         142.7335  138.2843  158.8652 C.3     1  UNL1        0.1435
     28 C         142.4738  138.8684  160.2222 C.3     1  UNL1        0.0478
     29 C         142.3566  142.8615  170.1650 C.3     1  UNL1        0.4200
     30 F         143.2898  143.7536  170.9287 F       1  UNL1       -0.1658
     31 F         143.3323  141.7296  170.2950 F       1  UNL1       -0.1658
     32 F         141.3809  143.9934  170.0351 F       1  UNL1       -0.1658
@<TRIPOS>BOND
     1     1     2    2
     2     2     3   am
     3     3     4    1
     4     4     5    1
     5     5     6    1
     6     6     7   ar
     7     7     8   ar
     8     8     9   ar
     9     9    29    1
    10    29    30    1
    11    29    31    1
    12    29    32    1
    13     9    10   ar
    14    10    11   ar
    15    11    12    1
    16    13     2    1
    17    13    14    1
    18    14    15    1
    19    15    16    1
    20    16    17    1
    21    17    18    1
    22    18    19    1
    23    19    21    1
    24    21    23    1
    25    23    24    1
    26    24    25    1
    27    25    26    1
    28    26    27    1
    29    27    28    1
    30    19    20    1
    31    12     3    1
    32    17    13    1
    33    28    23    1
    34    11     6   ar
    35    20    13    1
    36    21    22    1
@<TRIPOS>MOLECULE
*****
 32 36 0 0 0
SMALL
GASTEIGER

@<TRIPOS>ATOM
      1 O         138.0988  139.7965  165.9849 O.2     1  UNL1       -0.2748
      2 C         138.9770  140.0463  164.7948 C.2     1  UNL1        0.2274
      3 N         138.9845  141.3950  164.1382 N.am    1  UNL1       -0.2749
      4 C         138.1139  142.4938  164.6717 C.3     1  UNL1        0.1000
      5 C         138.1215  143.8424  164.0152 C.3     1  UNL1        0.0670
      6 C         138.9997  144.0922  162.8251 C.ar    1  UNL1        0.0583
      7 N         139.0072  145.4409  162.1685 N.ar    1  UNL1       -0.2484
      8 C         139.8854  145.6908  160.9784 C.ar    1  UNL1        0.1023
      9 C         140.7561  144.5919  160.4448 C.ar    1  UNL1        0.0902
     10 C         140.7485  143.2433  161.1014 C.ar    1  UNL1        0.0040
     11 C         139.8703  142.9935  162.2915 C.ar    1  UNL1        0.0113
     12 C         139.8627  141.6449  162.9481 C.3     1  UNL1        0.1213
     13 C         139.8476  138.9476  164.2613 C.3     1  UNL1        0.0976
     14 C         138.5954  138.9886  163.4365 C.3     1  UNL1        0.0431
     15 C         138.6921  137.9152  162.3932 C.3     1  UNL1        0.1426
     16 O         140.0040  137.2107  162.5732 O.3     1  UNL1       -0.3557
     17 C         140.7182  137.8487  163.7277 C.3     1  UNL1        0.1247
     18 C         141.9704  137.8077  164.5525 C.3     1  UNL1        0.0457
     19 C         141.8737  138.8811  165.5958 C.3     1  UNL1        0.0569
     20 C         140.5617  139.5855  165.4158 C.3     1  UNL1        0.0269
     21 N         142.9076  139.1949  166.6364 N.3     1  UNL1       -0.2994
     22 H         143.6835  139.6476  166.1534 H       1  UNL1        0.1232
     23 C         142.5555  140.0683  167.8039 C.3     1  UNL1        0.0590
     24 C         142.6348  141.5606  167.6748 C.3     1  UNL1        0.0478
     25 C         142.2828  142.4342  168.8424 C.3     1  UNL1        0.1435
     26 O         141.8514  141.8153  170.1389 O.3     1  UNL1       -0.3537
     27 C         141.7721  140.3229  170.2679 C.3     1  UNL1        0.1435
     28 C         142.1241  139.4495  169.1004 C.3     1  UNL1        0.0478
     29 C         141.6342  144.8418  159.2547 C.3     1  UNL1        0.4200
     30 F         142.5124  145.0916  158.0646 F       1  UNL1       -0.1658
     31 F         140.6081  145.7818  158.6949 F       1  UNL1       -0.1658
     32 F         142.6604  143.9017  159.8146 F       1  UNL1       -0.1658
@<TRIPOS>BOND
     1     1     2    2
     2     2     3   am
     3     3     4    1
     4     4     5    1
     5     5     6    1
     6     6     7   ar
     7     7     8   ar
     8     8     9   ar
     9     9    29    1
    10    29    30    1
    11    29    31    1
    12    29    32    1
    13     9    10   ar
    14    10    11   ar
    15    11    12    1
    16    13     2    1
    17    13    14    1
    18    14    15    1
    19    15    16    1
    20    16    17    1
    21    17    18    1
    22    18    19    1
    23    19    21    1
    24    21    23    1
    25    23    24    1
    26    24    25    1
    27    25    26    1
    28    26    27    1
    29    27    28    1
    30    19    20    1
    31    12     3    1
    32    17    13    1
    33    28    23    1
    34    11     6   ar
    35    20    13    1
    36    21    22    1
@<TRIPOS>MOLECULE
*****
 32 36 0 0 0
SMALL
GASTEIGER

@<TRIPOS>ATOM
      1 O         143.2136  144.5361  161.8891 O.2     1  UNL1       -0.2748
      2 C         142.0752  144.0256  162.7218 C.2     1  UNL1        0.2274
      3 N         142.3347  143.4870  164.0976 N.am    1  UNL1       -0.2749
      4 C         143.7326  143.4588  164.6406 C.3     1  UNL1        0.1000
      5 C         143.9921  142.9203  166.0162 C.3     1  UNL1        0.0670
      6 C         142.8537  142.4098  166.8489 C.ar    1  UNL1        0.0583
      7 N         143.1132  141.8712  168.2247 N.ar    1  UNL1       -0.2484
      8 C         141.9747  141.3608  169.0574 C.ar    1  UNL1        0.1023
      9 C         140.5767  141.3890  168.5143 C.ar    1  UNL1        0.0902
     10 C         140.3172  141.9276  167.1386 C.ar    1  UNL1        0.0040
     11 C         141.4557  142.4380  166.3059 C.ar    1  UNL1        0.0113
     12 C         141.1962  142.9766  164.9302 C.3     1  UNL1        0.1213
     13 C         140.6772  144.0538  162.1788 C.3     1  UNL1        0.0976
     14 C         141.0348  145.4450  162.6109 C.3     1  UNL1        0.0431
     15 C         139.8578  146.3331  162.3349 C.3     1  UNL1        0.1426
     16 O         138.7728  145.4907  161.7323 O.3     1  UNL1       -0.3557
     17 C         139.2792  144.0821  161.6358 C.3     1  UNL1        0.1247
     18 C         138.9216  142.6909  161.2037 C.3     1  UNL1        0.0457
     19 C         140.0986  141.8028  161.4797 C.3     1  UNL1        0.0569
     20 C         141.1836  142.6452  162.0823 C.3     1  UNL1        0.0269
     21 N         140.1768  140.3308  161.2018 N.3     1  UNL1       -0.2994
     22 H         139.9130  140.2012  160.2251 H       1  UNL1        0.1232
     23 C         141.4698  139.5974  161.4021 C.3     1  UNL1        0.0590
     24 C         142.4165  139.4187  160.2524 C.3     1  UNL1        0.0478
     25 C         143.7096  138.6852  160.4527 C.3     1  UNL1        0.1435
     26 O         144.0560  138.1306  161.8027 O.3     1  UNL1       -0.3537
     27 C         143.1092  138.3094  162.9524 C.3     1  UNL1        0.1435
     28 C         141.8162  139.0428  162.7521 C.3     1  UNL1        0.0478
     29 C         139.4382  140.8786  169.3470 C.3     1  UNL1        0.4200
     30 F         138.2998  140.3682  170.1797 F       1  UNL1       -0.1658
     31 F         139.8333  141.8075  170.4565 F       1  UNL1       -0.1658
     32 F         139.0431  139.9497  168.2374 F       1  UNL1       -0.1658
@<TRIPOS>BOND
     1     1     2    2
     2     2     3   am
     3     3     4    1
     4     4     5    1
     5     5     6    1
     6     6     7   ar
     7     7     8   ar
     8     8     9   ar
     9     9    29    1
    10    29    30    1
    11    29    31    1
    12    29    32    1
    13     9    10   ar
    14    10    11   ar
    15    11    12    1
    16    13     2    1
    17    13    14    1
    18    14    15    1
    19    15    16    1
    20    16    17    1
    21    17    18    1
    22    18    19    1
    23    19    21    1
    24    21    23    1
    25    23    24    1
    26    24    25    1
    27    25    26    1
    28    26    27    1
    29    27    28    1
    30    19    20    1
    31    12     3    1
    32    17    13    1
    33    28    23    1
    34    11     6   ar
    35    20    13    1
    36    21    22    1
@<TRIPOS>MOLECULE
*****
 32 36 0 0 0
SMALL
GASTEIGER

@<TRIPOS>ATOM
      1 O         139.9203  138.2054  161.4363 O.2     1  UNL1       -0.2748
      2 C         140.9312  138.9753  162.2334 C.2     1  UNL1        0.2274
      3 N         140.7244  139.1853  163.7043 N.am    1  UNL1       -0.2749
      4 C         139.5067  138.6254  164.3778 C.3     1  UNL1        0.1000
      5 C         139.2999  138.8354  165.8486 C.3     1  UNL1        0.0670
      6 C         140.3108  139.6053  166.6457 C.ar    1  UNL1        0.0583
      7 N         140.1039  139.8153  168.1165 N.ar    1  UNL1       -0.2484
      8 C         141.1148  140.5851  168.9137 C.ar    1  UNL1        0.1023
      9 C         142.3326  141.1450  168.2400 C.ar    1  UNL1        0.0902
     10 C         142.5394  140.9350  166.7693 C.ar    1  UNL1        0.0040
     11 C         141.5285  140.1651  165.9721 C.ar    1  UNL1        0.0113
     12 C         141.7353  139.9551  164.5014 C.3     1  UNL1        0.1213
     13 C         142.1489  139.5351  161.5599 C.3     1  UNL1        0.0976
     14 C         142.4031  138.0848  161.8462 C.3     1  UNL1        0.0431
     15 C         143.7779  137.7483  161.3495 C.3     1  UNL1        0.1426
     16 O         144.3734  138.9906  160.7562 O.3     1  UNL1       -0.3557
     17 C         143.3667  140.0950  160.8862 C.3     1  UNL1        0.1247
     18 C         143.1125  141.5453  160.5999 C.3     1  UNL1        0.0457
     19 C         141.7376  141.8818  161.0966 C.3     1  UNL1        0.0569
     20 C         141.1421  140.6395  161.6898 C.3     1  UNL1        0.0269
     21 N         141.0747  143.2249  161.0144 N.3     1  UNL1       -0.2994
     22 H         140.5017  143.2193  160.1705 H       1  UNL1        0.1232
     23 C         140.1935  143.6960  162.1330 C.3     1  UNL1        0.0590
     24 C         138.7045  143.7235  161.9540 C.3     1  UNL1        0.0478
     25 C         137.8231  144.1947  163.0727 C.3     1  UNL1        0.1435
     26 O         138.4309  144.6383  164.3703 O.3     1  UNL1       -0.3537
     27 C         139.9200  144.6108  164.5493 C.3     1  UNL1        0.1435
     28 C         140.8012  144.1397  163.4306 C.3     1  UNL1        0.0478
     29 C         143.3435  141.9148  169.0371 C.3     1  UNL1        0.4200
     30 F         144.3544  142.6846  169.8343 F       1  UNL1       -0.1658
     31 F         143.7024  142.7081  167.8157 F       1  UNL1       -0.1658
     32 F         142.9845  141.1215  170.2585 F       1  UNL1       -0.1658
@<TRIPOS>BOND
     1     1     2    2
     2     2     3   am
     3     3     4    1
     4     4     5    1
     5     5     6    1
     6     6     7   ar
     7     7     8   ar
     8     8     9   ar
     9     9    29    1
    10    29    30    1
    11    29    31    1
    12    29    32    1
    13     9    10   ar
    14    10    11   ar
    15    11    12    1
    16    13     2    1
    17    13    14    1
    18    14    15    1
    19    15    16    1
    20    16    17    1
    21    17    18    1
    22    18    19    1
    23    19    21    1
    24    21    23    1
    25    23    24    1
    26    24    25    1
    27    25    26    1
    28    26    27    1
    29    27    28    1
    30    19    20    1
    31    12     3    1
    32    17    13    1
    33    28    23    1
    34    11     6   ar
    35    20    13    1
    36    21    22    1
