@<TRIPOS>MOLECULE
*****
 25 27 0 0 0
SMALL
GASTEIGER

@<TRIPOS>ATOM
      1 C         137.8699  140.1653  160.2516 C.ar    1  UNL1        0.1388
      2 C         137.7596  138.8908  161.0349 C.ar    1  UNL1        0.0384
      3 C         138.2834  138.8256  162.4389 C.ar    1  UNL1        0.0207
      4 C         138.9175  140.0349  163.0598 C.ar    1  UNL1        0.0664
      5 C         139.0278  141.3094  162.2765 C.ar    1  UNL1        0.0167
      6 C         138.5040  141.3746  160.8725 C.ar    1  UNL1        0.0381
      7 C         139.6977  142.3316  163.1464 C.ar    1  UNL1       -0.0030
      8 C         140.0014  141.6888  164.4672 C.ar    1  UNL1        0.0410
      9 C         140.6699  142.3493  165.6363 C.3     1  UNL1        0.0501
     10 N         139.5192  140.2694  164.4136 N.ar    1  UNL1       -0.2785
     11 C         139.6208  139.2614  165.5198 C.2     1  UNL1        0.2644
     12 O         139.0916  137.8722  165.3196 O.2     1  UNL1       -0.2666
     13 C         140.2518  139.6425  166.8262 C.ar    1  UNL1        0.0565
     14 C         139.3908  140.0593  167.9815 C.ar    1  UNL1        0.0056
     15 C         140.0218  140.4404  169.2879 C.ar    1  UNL1        0.0115
     16 C         141.5137  140.4047  169.4390 C.ar    1  UNL1        0.0577
     17 CL        142.1446  140.7859  170.7454 Cl      1  UNL1       -0.0822
     18 C         142.3747  139.9879  168.2836 C.ar    1  UNL1        0.0115
     19 C         141.7437  139.6068  166.9772 C.ar    1  UNL1        0.0056
     20 C         138.1651  140.8784  157.7709 C.3     1  UNL1        0.2525
     21 O         137.3461  140.2305  158.8476 O.3     1  UNL1       -0.4714
     22 C         140.0091  143.7478  162.7627 C.3     1  UNL1        0.0691
     23 C         138.8964  144.6956  162.4257 C.2     1  UNL1        0.0548
     24 O         137.5083  144.4318  162.9293 O.co2   1  UNL1       -0.5488
     25 O         139.1717  145.9070  161.5852 O.co2   1  UNL1       -0.5488
@<TRIPOS>UNITY_ATOM_ATTR
24 1
charge -1
@<TRIPOS>BOND
     1    20    21    1
     2    21     1    1
     3     1     2   ar
     4     2     3   ar
     5     3     4   ar
     6     4     5   ar
     7     5     6   ar
     8     5     7   ar
     9     7    22    1
    10    22    23    1
    11    23    24   ar
    12    23    25   ar
    13     7     8   ar
    14     8     9    1
    15     8    10   ar
    16    10    11   am
    17    11    12    2
    18    11    13    1
    19    13    14   ar
    20    14    15   ar
    21    15    16   ar
    22    16    17    1
    23    16    18   ar
    24    18    19   ar
    25     6     1   ar
    26    19    13   ar
    27    10     4   ar
@<TRIPOS>MOLECULE
*****
 25 27 0 0 0
SMALL
GASTEIGER

@<TRIPOS>ATOM
      1 C         141.7104  140.3842  168.7671 C.ar    1  UNL1        0.1388
      2 C         142.8039  141.3491  168.4162 C.ar    1  UNL1        0.0384
      3 C         142.7392  142.1213  167.1319 C.ar    1  UNL1        0.0207
      4 C         141.5810  141.9286  166.1984 C.ar    1  UNL1        0.0664
      5 C         140.4874  140.9637  166.5494 C.ar    1  UNL1        0.0167
      6 C         140.5521  140.1916  167.8337 C.ar    1  UNL1        0.0381
      7 C         139.4779  140.9837  165.4400 C.ar    1  UNL1       -0.0030
      8 C         139.9476  141.9610  164.4035 C.ar    1  UNL1        0.0410
      9 C         139.2415  142.2956  163.1230 C.3     1  UNL1        0.0501
     10 N         141.2474  142.5449  164.8723 N.ar    1  UNL1       -0.2785
     11 C         142.0692  143.5660  164.1429 C.2     1  UNL1        0.2644
     12 O         143.3543  144.0592  164.7388 O.2     1  UNL1       -0.2666
     13 C         141.6059  144.0939  162.8174 C.ar    1  UNL1        0.0565
     14 C         142.0623  143.4380  161.5480 C.ar    1  UNL1        0.0056
     15 C         141.5990  143.9659  160.2225 C.ar    1  UNL1        0.0115
     16 C         140.6794  145.1497  160.1666 C.ar    1  UNL1        0.0577
     17 CL        140.2162  145.6775  158.8411 Cl      1  UNL1       -0.0822
     18 C         140.2231  145.8055  161.4361 C.ar    1  UNL1        0.0115
     19 C         140.6864  145.2776  162.7615 C.ar    1  UNL1        0.0056
     20 C         142.7470  138.4789  170.1972 C.3     1  UNL1        0.2525
     21 O         141.7751  139.6120  170.0515 O.3     1  UNL1       -0.4714
     22 C         138.2197  140.1695  165.3781 C.3     1  UNL1        0.0691
     23 C         138.2195  138.7511  165.8663 C.2     1  UNL1        0.0548
     24 O         139.1455  137.7454  165.2490 O.co2   1  UNL1       -0.5488
     25 O         137.2934  138.3385  166.9717 O.co2   1  UNL1       -0.5488
@<TRIPOS>UNITY_ATOM_ATTR
24 1
charge -1
@<TRIPOS>BOND
     1    20    21    1
     2    21     1    1
     3     1     2   ar
     4     2     3   ar
     5     3     4   ar
     6     4     5   ar
     7     5     6   ar
     8     5     7   ar
     9     7    22    1
    10    22    23    1
    11    23    24   ar
    12    23    25   ar
    13     7     8   ar
    14     8     9    1
    15     8    10   ar
    16    10    11   am
    17    11    12    2
    18    11    13    1
    19    13    14   ar
    20    14    15   ar
    21    15    16   ar
    22    16    17    1
    23    16    18   ar
    24    18    19   ar
    25     6     1   ar
    26    19    13   ar
    27    10     4   ar
@<TRIPOS>MOLECULE
*****
 25 27 0 0 0
SMALL
GASTEIGER

@<TRIPOS>ATOM
      1 C         141.3934  142.2780  168.9023 C.ar    1  UNL1        0.1388
      2 C         142.7659  142.4687  168.3280 C.ar    1  UNL1        0.0384
      3 C         143.0916  141.9270  166.9677 C.ar    1  UNL1        0.0207
      4 C         142.0449  141.1946  166.1816 C.ar    1  UNL1        0.0664
      5 C         140.6724  141.0039  166.7559 C.ar    1  UNL1        0.0167
      6 C         140.3466  141.5456  168.1162 C.ar    1  UNL1        0.0381
      7 C         139.8522  140.2454  165.7548 C.ar    1  UNL1       -0.0030
      8 C         140.7179  139.9673  164.5619 C.ar    1  UNL1        0.0410
      9 C         140.3017  139.2316  163.3226 C.3     1  UNL1        0.0501
     10 N         142.0731  140.5539  164.8257 N.ar    1  UNL1       -0.2785
     11 C         143.2498  140.5080  163.8966 C.2     1  UNL1        0.2644
     12 O         144.5483  141.1418  164.2989 O.2     1  UNL1       -0.2666
     13 C         143.1280  139.8281  162.5650 C.ar    1  UNL1        0.0565
     14 C         142.6270  140.5925  161.3757 C.ar    1  UNL1        0.0056
     15 C         142.5052  139.9126  160.0441 C.ar    1  UNL1        0.0115
     16 C         142.8843  138.4683  159.9020 C.ar    1  UNL1        0.0577
     17 CL        142.7625  137.7885  158.5704 Cl      1  UNL1       -0.0822
     18 C         143.3854  137.7039  161.0914 C.ar    1  UNL1        0.0115
     19 C         143.5072  138.3838  162.4229 C.ar    1  UNL1        0.0056
     20 C         139.6407  142.8916  170.7193 C.3     1  UNL1        0.2525
     21 O         141.0676  142.8197  170.2626 O.3     1  UNL1       -0.4714
     22 C         138.4183  139.8367  165.9181 C.3     1  UNL1        0.0691
     23 C         138.0821  138.4620  166.4152 C.2     1  UNL1        0.0548
     24 O         138.4791  137.2572  165.6147 O.co2   1  UNL1       -0.5488
     25 O         137.3491  138.2920  167.7128 O.co2   1  UNL1       -0.5488
@<TRIPOS>UNITY_ATOM_ATTR
24 1
charge -1
@<TRIPOS>BOND
     1    20    21    1
     2    21     1    1
     3     1     2   ar
     4     2     3   ar
     5     3     4   ar
     6     4     5   ar
     7     5     6   ar
     8     5     7   ar
     9     7    22    1
    10    22    23    1
    11    23    24   ar
    12    23    25   ar
    13     7     8   ar
    14     8     9    1
    15     8    10   ar
    16    10    11   am
    17    11    12    2
    18    11    13    1
    19    13    14   ar
    20    14    15   ar
    21    15    16   ar
    22    16    17    1
    23    16    18   ar
    24    18    19   ar
    25     6     1   ar
    26    19    13   ar
    27    10     4   ar
@<TRIPOS>MOLECULE
*****
 25 27 0 0 0
SMALL
GASTEIGER

@<TRIPOS>ATOM
      1 C         141.4405  144.9337  160.7057 C.ar    1  UNL1        0.1388
      2 C         140.0617  144.9963  161.2927 C.ar    1  UNL1        0.0384
      3 C         139.7988  144.4214  162.6530 C.ar    1  UNL1        0.0207
      4 C         140.9149  143.7839  163.4263 C.ar    1  UNL1        0.0664
      5 C         142.2938  143.7212  162.8392 C.ar    1  UNL1        0.0167
      6 C         142.5566  144.2961  161.4789 C.ar    1  UNL1        0.0381
      7 C         143.1885  143.0361  163.8293 C.ar    1  UNL1       -0.0030
      8 C         142.3625  142.6754  165.0283 C.ar    1  UNL1        0.0410
      9 C         142.8551  141.9753  166.2601 C.3     1  UNL1        0.0501
     10 N         140.9573  143.1375  164.7792 N.ar    1  UNL1       -0.2785
     11 C         139.7981  142.9807  165.7181 C.2     1  UNL1        0.2644
     12 O         138.4437  143.4956  165.3302 O.2     1  UNL1       -0.2666
     13 C         139.9932  142.3091  167.0451 C.ar    1  UNL1        0.0565
     14 C         140.3725  143.1209  168.2480 C.ar    1  UNL1        0.0056
     15 C         140.5676  142.4492  169.5750 C.ar    1  UNL1        0.0115
     16 C         140.3835  140.9657  169.6990 C.ar    1  UNL1        0.0577
     17 CL        140.5787  140.2941  171.0260 Cl      1  UNL1       -0.0822
     18 C         140.0043  140.1539  168.4960 C.ar    1  UNL1        0.0115
     19 C         139.8092  140.8256  167.1691 C.ar    1  UNL1        0.0056
     20 C         140.6098  145.5371  158.3191 C.3     1  UNL1        0.2525
     21 O         141.7034  145.5086  159.3454 O.3     1  UNL1       -0.4714
     22 C         144.6521  142.7603  163.6516 C.3     1  UNL1        0.0691
     23 C         145.1100  141.4083  163.1907 C.2     1  UNL1        0.0548
     24 O         145.5592  140.3867  164.1930 O.co2   1  UNL1       -0.5488
     25 O         145.1186  141.0779  161.7276 O.co2   1  UNL1       -0.5488
@<TRIPOS>UNITY_ATOM_ATTR
24 1
charge -1
@<TRIPOS>BOND
     1    20    21    1
     2    21     1    1
     3     1     2   ar
     4     2     3   ar
     5     3     4   ar
     6     4     5   ar
     7     5     6   ar
     8     5     7   ar
     9     7    22    1
    10    22    23    1
    11    23    24   ar
    12    23    25   ar
    13     7     8   ar
    14     8     9    1
    15     8    10   ar
    16    10    11   am
    17    11    12    2
    18    11    13    1
    19    13    14   ar
    20    14    15   ar
    21    15    16   ar
    22    16    17    1
    23    16    18   ar
    24    18    19   ar
    25     6     1   ar
    26    19    13   ar
    27    10     4   ar
@<TRIPOS>MOLECULE
*****
 25 27 0 0 0
SMALL
GASTEIGER

@<TRIPOS>ATOM
      1 C         140.8451  139.9398  168.9260 C.ar    1  UNL1        0.1388
      2 C         142.2801  139.6148  168.6346 C.ar    1  UNL1        0.0384
      3 C         142.7433  139.4713  167.2152 C.ar    1  UNL1        0.0207
      4 C         141.7714  139.6527  166.0871 C.ar    1  UNL1        0.0664
      5 C         140.3364  139.9777  166.3786 C.ar    1  UNL1        0.0167
      6 C         139.8732  140.1213  167.7980 C.ar    1  UNL1        0.0381
      7 C         139.6135  140.0990  165.0698 C.ar    1  UNL1       -0.0030
      8 C         140.6019  139.8489  163.9695 C.ar    1  UNL1        0.0410
      9 C         140.3082  139.8708  162.4986 C.3     1  UNL1        0.0501
     10 N         141.9355  139.5731  164.5983 N.ar    1  UNL1       -0.2785
     11 C         143.2096  139.2708  163.8666 C.2     1  UNL1        0.2644
     12 O         144.4726  139.0146  164.6342 O.2     1  UNL1       -0.2666
     13 C         143.2207  139.2246  162.3674 C.ar    1  UNL1        0.0565
     14 C         142.9394  137.9351  161.6546 C.ar    1  UNL1        0.0056
     15 C         142.9505  137.8889  160.1554 C.ar    1  UNL1        0.0115
     16 C         143.2429  139.1323  159.3689 C.ar    1  UNL1        0.0577
     17 CL        143.2540  139.0860  157.8696 Cl      1  UNL1       -0.0822
     18 C         143.5243  140.4217  160.0816 C.ar    1  UNL1        0.0115
     19 C         143.5132  140.4679  161.5809 C.ar    1  UNL1        0.0056
     20 C         141.0168  141.1048  171.2419 C.3     1  UNL1        0.2525
     21 O         140.3819  140.0834  170.3455 O.3     1  UNL1       -0.4714
     22 C         138.1579  140.4149  164.8924 C.3     1  UNL1        0.0691
     23 C         137.7438  141.6813  164.2036 C.2     1  UNL1        0.0548
     24 O         138.0991  143.0106  164.8010 O.co2   1  UNL1       -0.5488
     25 O         136.9745  141.6186  162.9175 O.co2   1  UNL1       -0.5488
@<TRIPOS>UNITY_ATOM_ATTR
24 1
charge -1
@<TRIPOS>BOND
     1    20    21    1
     2    21     1    1
     3     1     2   ar
     4     2     3   ar
     5     3     4   ar
     6     4     5   ar
     7     5     6   ar
     8     5     7   ar
     9     7    22    1
    10    22    23    1
    11    23    24   ar
    12    23    25   ar
    13     7     8   ar
    14     8     9    1
    15     8    10   ar
    16    10    11   am
    17    11    12    2
    18    11    13    1
    19    13    14   ar
    20    14    15   ar
    21    15    16   ar
    22    16    17    1
    23    16    18   ar
    24    18    19   ar
    25     6     1   ar
    26    19    13   ar
    27    10     4   ar
@<TRIPOS>MOLECULE
*****
 25 27 0 0 0
SMALL
GASTEIGER

@<TRIPOS>ATOM
      1 C         139.5964  138.5279  161.6303 C.ar    1  UNL1        0.1388
      2 C         138.8397  138.1394  162.8657 C.ar    1  UNL1        0.0384
      3 C         139.2087  138.7380  164.1906 C.ar    1  UNL1        0.0207
      4 C         140.3345  139.7252  164.2801 C.ar    1  UNL1        0.0664
      5 C         141.0912  140.1138  163.0447 C.ar    1  UNL1        0.0167
      6 C         140.7221  139.5152  161.7197 C.ar    1  UNL1        0.0381
      7 C         142.1459  141.1047  163.4395 C.ar    1  UNL1       -0.0030
      8 C         142.0410  141.3285  164.9190 C.ar    1  UNL1        0.0410
      9 C         142.9040  142.2441  165.7356 C.3     1  UNL1        0.0501
     10 N         140.9215  140.4759  165.4385 N.ar    1  UNL1       -0.2785
     11 C         140.4685  140.3893  166.8658 C.2     1  UNL1        0.2644
     12 O         139.3287  139.4879  167.2376 O.2     1  UNL1       -0.2666
     13 C         141.1553  141.2041  167.9215 C.ar    1  UNL1        0.0565
     14 C         140.5598  142.5057  168.3700 C.ar    1  UNL1        0.0056
     15 C         141.2467  143.3204  169.4257 C.ar    1  UNL1        0.0115
     16 C         142.5290  142.8337  170.0327 C.ar    1  UNL1        0.0577
     17 CL        143.2158  143.6485  171.0884 Cl      1  UNL1       -0.0822
     18 C         143.1246  141.5321  169.5842 C.ar    1  UNL1        0.0115
     19 C         142.4377  140.7173  168.5285 C.ar    1  UNL1        0.0056
     20 C         139.7067  138.5664  159.0348 C.3     1  UNL1        0.2525
     21 O         139.2273  137.9293  160.3053 O.3     1  UNL1       -0.4714
     22 C         143.1322  141.7572  162.5168 C.3     1  UNL1        0.0691
     23 C         144.4137  141.0575  162.1727 C.2     1  UNL1        0.0548
     24 O         144.3927  139.8468  161.2873 O.co2   1  UNL1       -0.5488
     25 O         145.7160  141.5685  162.7137 O.co2   1  UNL1       -0.5488
@<TRIPOS>UNITY_ATOM_ATTR
24 1
charge -1
@<TRIPOS>BOND
     1    20    21    1
     2    21     1    1
     3     1     2   ar
     4     2     3   ar
     5     3     4   ar
     6     4     5   ar
     7     5     6   ar
     8     5     7   ar
     9     7    22    1
    10    22    23    1
    11    23    24   ar
    12    23    25   ar
    13     7     8   ar
    14     8     9    1
    15     8    10   ar
    16    10    11   am
    17    11    12    2
    18    11    13    1
    19    13    14   ar
    20    14    15   ar
    21    15    16   ar
    22    16    17    1
    23    16    18   ar
    24    18    19   ar
    25     6     1   ar
    26    19    13   ar
    27    10     4   ar
@<TRIPOS>MOLECULE
*****
 25 27 0 0 0
SMALL
GASTEIGER

@<TRIPOS>ATOM
      1 C         143.4388  142.7493  160.0049 C.ar    1  UNL1        0.1388
      2 C         143.8020  141.3813  160.5014 C.ar    1  UNL1        0.0384
      3 C         143.2869  140.9031  161.8265 C.ar    1  UNL1        0.0207
      4 C         142.4086  141.7929  162.6552 C.ar    1  UNL1        0.0664
      5 C         142.0454  143.1609  162.1587 C.ar    1  UNL1        0.0167
      6 C         142.5605  143.6391  160.8336 C.ar    1  UNL1        0.0381
      7 C         141.1680  143.8098  163.1879 C.ar    1  UNL1       -0.0030
      8 C         140.9889  142.8427  164.3205 C.ar    1  UNL1        0.0410
      9 C         140.1844  143.0803  165.5640 C.3     1  UNL1        0.0501
     10 N         141.7557  141.5962  163.9912 N.ar    1  UNL1       -0.2785
     11 C         141.8525  140.3685  164.8476 C.2     1  UNL1        0.2644
     12 O         142.6607  139.1928  164.3845 O.2     1  UNL1       -0.2666
     13 C         141.1411  140.3165  166.1671 C.ar    1  UNL1        0.0565
     14 C         139.7403  139.7855  166.2436 C.ar    1  UNL1        0.0056
     15 C         139.0289  139.7335  167.5631 C.ar    1  UNL1        0.0115
     16 C         139.7182  140.2126  168.8062 C.ar    1  UNL1        0.0577
     17 CL        139.0067  140.1605  170.1258 Cl      1  UNL1       -0.0822
     18 C         141.1190  140.7436  168.7298 C.ar    1  UNL1        0.0115
     19 C         141.8304  140.7956  167.4102 C.ar    1  UNL1        0.0056
     20 C         143.0287  143.3141  157.5024 C.3     1  UNL1        0.2525
     21 O         143.9540  143.2275  158.6798 O.3     1  UNL1       -0.4714
     22 C         140.5739  145.1843  163.1000 C.3     1  UNL1        0.0691
     23 C         139.3437  145.4183  162.2743 C.2     1  UNL1        0.0548
     24 O         139.3050  146.5498  161.2902 O.co2   1  UNL1       -0.5488
     25 O         138.1523  144.5208  162.4325 O.co2   1  UNL1       -0.5488
@<TRIPOS>UNITY_ATOM_ATTR
24 1
charge -1
@<TRIPOS>BOND
     1    20    21    1
     2    21     1    1
     3     1     2   ar
     4     2     3   ar
     5     3     4   ar
     6     4     5   ar
     7     5     6   ar
     8     5     7   ar
     9     7    22    1
    10    22    23    1
    11    23    24   ar
    12    23    25   ar
    13     7     8   ar
    14     8     9    1
    15     8    10   ar
    16    10    11   am
    17    11    12    2
    18    11    13    1
    19    13    14   ar
    20    14    15   ar
    21    15    16   ar
    22    16    17    1
    23    16    18   ar
    24    18    19   ar
    25     6     1   ar
    26    19    13   ar
    27    10     4   ar
@<TRIPOS>MOLECULE
*****
 25 27 0 0 0
SMALL
GASTEIGER

@<TRIPOS>ATOM
      1 C         142.0992  142.0131  168.6445 C.ar    1  UNL1        0.1388
      2 C         140.6639  142.3480  168.3658 C.ar    1  UNL1        0.0384
      3 C         140.2493  142.7875  166.9928 C.ar    1  UNL1        0.0207
      4 C         141.2699  142.8921  165.8987 C.ar    1  UNL1        0.0664
      5 C         142.7052  142.5572  166.1774 C.ar    1  UNL1        0.0167
      6 C         143.1198  142.1177  167.5503 C.ar    1  UNL1        0.0381
      7 C         143.4816  142.7525  164.9088 C.ar    1  UNL1       -0.0030
      8 C         142.5260  143.2080  163.8461 C.ar    1  UNL1        0.0410
      9 C         142.8759  143.5221  162.4216 C.3     1  UNL1        0.0501
     10 N         141.1592  143.2943  164.4579 N.ar    1  UNL1       -0.2785
     11 C         139.9022  143.7098  163.7526 C.2     1  UNL1        0.2644
     12 O         138.6014  143.7485  164.4985 O.2     1  UNL1       -0.2666
     13 C         139.9460  144.0867  162.3014 C.ar    1  UNL1        0.0565
     14 C         139.6675  143.0542  161.2496 C.ar    1  UNL1        0.0056
     15 C         139.7113  143.4310  159.7984 C.ar    1  UNL1        0.0115
     16 C         140.0336  144.8405  159.3989 C.ar    1  UNL1        0.0577
     17 CL        140.0774  145.2173  157.9477 Cl      1  UNL1       -0.0822
     18 C         140.3121  145.8730  160.4507 C.ar    1  UNL1        0.0115
     19 C         140.2683  145.4962  161.9019 C.ar    1  UNL1        0.0056
     20 C         142.6574  140.1128  170.3259 C.3     1  UNL1        0.2525
     21 O         142.5138  141.5737  170.0174 O.3     1  UNL1       -0.4714
     22 C         144.9548  142.5310  164.7338 C.3     1  UNL1        0.0691
     23 C         145.4469  141.4324  163.8390 C.2     1  UNL1        0.0548
     24 O         145.4111  140.0087  164.3102 O.co2   1  UNL1       -0.5488
     25 O         145.9749  141.7572  162.4731 O.co2   1  UNL1       -0.5488
@<TRIPOS>UNITY_ATOM_ATTR
24 1
charge -1
@<TRIPOS>BOND
     1    20    21    1
     2    21     1    1
     3     1     2   ar
     4     2     3   ar
     5     3     4   ar
     6     4     5   ar
     7     5     6   ar
     8     5     7   ar
     9     7    22    1
    10    22    23    1
    11    23    24   ar
    12    23    25   ar
    13     7     8   ar
    14     8     9    1
    15     8    10   ar
    16    10    11   am
    17    11    12    2
    18    11    13    1
    19    13    14   ar
    20    14    15   ar
    21    15    16   ar
    22    16    17    1
    23    16    18   ar
    24    18    19   ar
    25     6     1   ar
    26    19    13   ar
    27    10     4   ar
@<TRIPOS>MOLECULE
*****
 25 27 0 0 0
SMALL
GASTEIGER

@<TRIPOS>ATOM
      1 C         141.2877  142.0034  169.3683 C.ar    1  UNL1        0.1388
      2 C         141.9351  140.6511  169.3255 C.ar    1  UNL1        0.0384
      3 C         142.2187  139.9968  168.0058 C.ar    1  UNL1        0.0207
      4 C         141.8549  140.6949  166.7290 C.ar    1  UNL1        0.0664
      5 C         141.2075  142.0473  166.7719 C.ar    1  UNL1        0.0167
      6 C         140.9239  142.7016  168.0915 C.ar    1  UNL1        0.0381
      7 C         140.9634  142.4894  165.3594 C.ar    1  UNL1       -0.0030
      8 C         141.4599  141.4101  164.4436 C.ar    1  UNL1        0.0410
      9 C         141.4136  141.4354  162.9445 C.3     1  UNL1        0.0501
     10 N         142.0109  140.3011  165.2901 N.ar    1  UNL1       -0.2785
     11 C         142.6123  139.0227  164.7861 C.2     1  UNL1        0.2644
     12 O         143.1245  138.0007  165.7573 O.2     1  UNL1       -0.2666
     13 C         142.7017  138.7663  163.3109 C.ar    1  UNL1        0.0565
     14 C         143.9405  139.1490  162.5568 C.ar    1  UNL1        0.0056
     15 C         144.0299  138.8926  161.0815 C.ar    1  UNL1        0.0115
     16 C         142.8803  138.2534  160.3604 C.ar    1  UNL1        0.0577
     17 CL        142.9697  137.9970  158.8852 Cl      1  UNL1       -0.0822
     18 C         141.6414  137.8707  161.1145 C.ar    1  UNL1        0.0115
     19 C         141.5521  138.1271  162.5898 C.ar    1  UNL1        0.0056
     20 C         139.6129  143.1125  171.0160 C.3     1  UNL1        0.2525
     21 O         141.0041  142.6577  170.6880 O.3     1  UNL1       -0.4714
     22 C         140.3333  143.7834  164.9369 C.3     1  UNL1        0.0691
     23 C         138.8666  144.0098  165.1549 C.2     1  UNL1        0.0548
     24 O         138.3952  145.2487  165.8570 O.co2   1  UNL1       -0.5488
     25 O         137.8714  142.9974  164.6708 O.co2   1  UNL1       -0.5488
@<TRIPOS>UNITY_ATOM_ATTR
24 1
charge -1
@<TRIPOS>BOND
     1    20    21    1
     2    21     1    1
     3     1     2   ar
     4     2     3   ar
     5     3     4   ar
     6     4     5   ar
     7     5     6   ar
     8     5     7   ar
     9     7    22    1
    10    22    23    1
    11    23    24   ar
    12    23    25   ar
    13     7     8   ar
    14     8     9    1
    15     8    10   ar
    16    10    11   am
    17    11    12    2
    18    11    13    1
    19    13    14   ar
    20    14    15   ar
    21    15    16   ar
    22    16    17    1
    23    16    18   ar
    24    18    19   ar
    25     6     1   ar
    26    19    13   ar
    27    10     4   ar
