@<TRIPOS>MOLECULE
*****
 33 36 0 0 0
SMALL
GASTEIGER

@<TRIPOS>ATOM
      1 C         140.5702  140.0215  170.1305 C.3     1  UNL1        0.1459
      2 O         140.5293  140.2409  171.6138 O.3     1  UNL1       -0.3813
      3 H         141.3946  140.0269  171.9963 H       1  UNL1        0.2105
      4 C         139.3491  140.2830  169.2997 C.3     1  UNL1        0.1204
      5 O         137.4513  138.4208  167.9102 O.2     1  UNL1       -0.2684
      6 C         138.4596  139.1952  167.1143 C.2     1  UNL1        0.2655
      7 N         139.4086  140.1264  167.8091 N.am    1  UNL1       -0.2972
      8 H         140.0704  140.6347  167.2867 H       1  UNL1        0.1499
      9 C         138.5191  139.0386  165.6237 C.2     1  UNL1        0.1571
     10 N         138.8004  137.7658  164.8814 N.2     1  UNL1       -0.1436
     11 N         138.7629  138.0679  163.4126 N.2     1  UNL1       -0.1519
     12 C         138.4584  139.5273  163.2471 C.2     1  UNL1        0.0865
     13 C         138.2989  140.3875  162.0287 C.3     1  UNL1        0.0736
     14 C         137.9888  141.8475  162.1767 C.2     1  UNL1       -0.0197
     15 C         137.8381  142.4475  163.5433 C.2     1  UNL1       -0.0041
     16 C         137.9976  141.5873  164.7617 C.2     1  UNL1        0.0026
     17 C         138.3078  140.1273  164.6136 C.2     1  UNL1        0.0395
     18 C         141.8324  139.5407  169.4780 C.3     1  UNL1        0.1034
     19 N         142.3318  140.2059  168.2297 N.3     1  UNL1       -0.2704
     20 C         142.6363  141.6747  168.2330 C.3     1  UNL1        0.0759
     21 C         143.1358  142.3398  166.9848 C.3     1  UNL1        0.0609
     22 C         143.3307  141.5363  165.7333 C.3     1  UNL1        0.1687
     23 C         143.0262  140.0675  165.7300 C.3     1  UNL1        0.0609
     24 C         142.5268  139.4024  166.9782 C.3     1  UNL1        0.0759
     25 O         143.8302  142.2015  164.4851 O.3     1  UNL1       -0.4790
     26 C         142.9052  143.0540  163.6679 C.ar    1  UNL1        0.1393
     27 C         142.5743  144.4460  164.1182 C.ar    1  UNL1        0.0378
     28 C         141.6494  145.2986  163.3011 C.ar    1  UNL1        0.0154
     29 C         141.0554  144.7591  162.0337 C.ar    1  UNL1        0.0684
     30 CL        140.1305  145.6116  161.2166 Cl      1  UNL1       -0.0814
     31 C         141.3864  143.3671  161.5835 C.ar    1  UNL1        0.0712
     32 CL        140.7924  142.8276  160.3162 Cl      1  UNL1       -0.0813
     33 C         142.3113  142.5145  162.4006 C.ar    1  UNL1        0.0491
@<TRIPOS>BOND
     1     5     6    2
     2     6     7   am
     3     7     4    1
     4     4     1    1
     5     1     2    1
     6     1    18    1
     7    18    19    1
     8    19    20    1
     9    20    21    1
    10    21    22    1
    11    22    25    1
    12    25    26    1
    13    26    27   ar
    14    27    28   ar
    15    28    29   ar
    16    29    30    1
    17    29    31   ar
    18    31    32    1
    19    31    33   ar
    20    22    23    1
    21    23    24    1
    22     6     9    1
    23     9    10    2
    24    10    11    1
    25    11    12    2
    26    12    13    1
    27    13    14    1
    28    14    15    2
    29    15    16    1
    30    16    17    2
    31    24    19    1
    32    17     9    1
    33    33    26   ar
    34    17    12    1
    35     7     8    1
    36     2     3    1
@<TRIPOS>MOLECULE
*****
 33 36 0 0 0
SMALL
GASTEIGER

@<TRIPOS>ATOM
      1 C         140.3713  145.1973  160.5833 C.3     1  UNL1        0.1459
      2 O         141.4201  145.8357  159.7216 O.3     1  UNL1       -0.3813
      3 H         141.7798  146.6149  160.1738 H       1  UNL1        0.2105
      4 C         139.6571  143.9669  160.1081 C.3     1  UNL1        0.1204
      5 O         137.6963  142.3670  161.7191 O.2     1  UNL1       -0.2684
      6 C         139.0664  141.8203  161.4475 C.2     1  UNL1        0.2655
      7 N         140.0469  142.6203  160.6419 N.am    1  UNL1       -0.2972
      8 H         140.9462  142.2616  160.4636 H       1  UNL1        0.1499
      9 C         139.4561  140.4738  161.9813 C.2     1  UNL1        0.1571
     10 N         140.2753  139.4436  161.2619 N.2     1  UNL1       -0.1436
     11 N         140.4206  138.2542  162.1642 N.2     1  UNL1       -0.1519
     12 C         139.6911  138.5493  163.4412 C.2     1  UNL1        0.0865
     13 C         139.4927  137.7461  164.6924 C.3     1  UNL1        0.0736
     14 C         138.6982  138.3147  165.8305 C.2     1  UNL1       -0.0197
     15 C         138.1021  139.6865  165.7174 C.2     1  UNL1       -0.0041
     16 C         138.3006  140.4897  164.4663 C.2     1  UNL1        0.0026
     17 C         139.0951  139.9211  163.3282 C.2     1  UNL1        0.0395
     18 C         140.0367  145.7894  161.9203 C.3     1  UNL1        0.1034
     19 N         140.1657  144.9580  163.1622 N.3     1  UNL1       -0.2704
     20 C         141.4960  144.3780  163.5417 C.3     1  UNL1        0.0759
     21 C         141.6248  143.5467  164.7836 C.3     1  UNL1        0.0609
     22 C         140.4235  143.2953  165.6459 C.3     1  UNL1        0.1687
     23 C         139.0933  143.8753  165.2665 C.3     1  UNL1        0.0609
     24 C         138.9644  144.7066  164.0246 C.3     1  UNL1        0.0759
     25 O         140.5525  142.4640  166.8878 O.3     1  UNL1       -0.4790
     26 C         141.4187  141.2393  166.8840 C.ar    1  UNL1        0.1393
     27 C         141.8180  140.5992  168.1805 C.ar    1  UNL1        0.0378
     28 C         142.6842  139.3746  168.1768 C.ar    1  UNL1        0.0154
     29 C         143.1510  138.7902  166.8767 C.ar    1  UNL1        0.0684
     30 CL        144.0172  137.5655  166.8730 Cl      1  UNL1       -0.0814
     31 C         142.7517  139.4303  165.5802 C.ar    1  UNL1        0.0712
     32 CL        143.2186  138.8457  164.2801 Cl      1  UNL1       -0.0813
     33 C         141.8855  140.6549  165.5839 C.ar    1  UNL1        0.0491
@<TRIPOS>BOND
     1     5     6    2
     2     6     7   am
     3     7     4    1
     4     4     1    1
     5     1     2    1
     6     1    18    1
     7    18    19    1
     8    19    20    1
     9    20    21    1
    10    21    22    1
    11    22    25    1
    12    25    26    1
    13    26    27   ar
    14    27    28   ar
    15    28    29   ar
    16    29    30    1
    17    29    31   ar
    18    31    32    1
    19    31    33   ar
    20    22    23    1
    21    23    24    1
    22     6     9    1
    23     9    10    2
    24    10    11    1
    25    11    12    2
    26    12    13    1
    27    13    14    1
    28    14    15    2
    29    15    16    1
    30    16    17    2
    31    24    19    1
    32    17     9    1
    33    33    26   ar
    34    17    12    1
    35     7     8    1
    36     2     3    1
@<TRIPOS>MOLECULE
*****
 33 36 0 0 0
SMALL
GASTEIGER

@<TRIPOS>ATOM
      1 C         143.6775  142.6912  159.4892 C.3     1  UNL1        0.1459
      2 O         143.6673  143.7799  158.4574 O.3     1  UNL1       -0.3813
      3 H         144.4739  144.3122  158.5409 H       1  UNL1        0.2105
      4 C         142.5338  141.7242  159.5706 C.3     1  UNL1        0.1204
      5 O         139.6463  142.2044  158.9138 O.2     1  UNL1       -0.2684
      6 C         140.0805  142.0879  160.3447 C.2     1  UNL1        0.2655
      7 N         141.5243  141.8478  160.6732 N.am    1  UNL1       -0.2972
      8 H         141.8094  141.7713  161.6124 H       1  UNL1        0.1499
      9 C         139.0710  142.2115  161.4473 C.2     1  UNL1        0.1571
     10 N         137.8050  141.4175  161.5767 N.2     1  UNL1       -0.1436
     11 N         137.1019  141.8661  162.8235 N.2     1  UNL1       -0.1519
     12 C         137.9334  142.9373  163.4647 C.2     1  UNL1        0.0865
     13 C         137.7396  143.7459  164.7131 C.3     1  UNL1        0.0736
     14 C         138.7628  144.7680  165.1109 C.2     1  UNL1       -0.0197
     15 C         139.9798  144.9815  164.2604 C.2     1  UNL1       -0.0041
     16 C         140.1736  144.1729  163.0120 C.2     1  UNL1        0.0026
     17 C         139.1504  143.1508  162.6141 C.2     1  UNL1        0.0395
     18 C         144.8316  142.5695  160.4396 C.3     1  UNL1        0.1034
     19 N         144.5923  142.6153  161.9198 N.3     1  UNL1       -0.2704
     20 C         144.8871  141.4115  162.7648 C.3     1  UNL1        0.0759
     21 C         144.6478  141.4574  164.2448 C.3     1  UNL1        0.0609
     22 C         144.1136  142.7069  164.8799 C.3     1  UNL1        0.1687
     23 C         143.8188  143.9107  164.0349 C.3     1  UNL1        0.0609
     24 C         144.0581  143.8648  162.5549 C.3     1  UNL1        0.0759
     25 O         143.8743  142.7526  166.3599 O.3     1  UNL1       -0.4790
     26 C         142.6749  142.0697  166.9473 C.ar    1  UNL1        0.1393
     27 C         141.3285  142.2371  166.3078 C.ar    1  UNL1        0.0378
     28 C         140.1290  141.5542  166.8951 C.ar    1  UNL1        0.0154
     29 C         140.2761  140.7039  168.1219 C.ar    1  UNL1        0.0684
     30 CL        139.0766  140.0209  168.7092 Cl      1  UNL1       -0.0814
     31 C         141.6225  140.5364  168.7615 C.ar    1  UNL1        0.0712
     32 CL        141.7695  139.6860  169.9884 Cl      1  UNL1       -0.0813
     33 C         142.8220  141.2193  168.1742 C.ar    1  UNL1        0.0491
@<TRIPOS>BOND
     1     5     6    2
     2     6     7   am
     3     7     4    1
     4     4     1    1
     5     1     2    1
     6     1    18    1
     7    18    19    1
     8    19    20    1
     9    20    21    1
    10    21    22    1
    11    22    25    1
    12    25    26    1
    13    26    27   ar
    14    27    28   ar
    15    28    29   ar
    16    29    30    1
    17    29    31   ar
    18    31    32    1
    19    31    33   ar
    20    22    23    1
    21    23    24    1
    22     6     9    1
    23     9    10    2
    24    10    11    1
    25    11    12    2
    26    12    13    1
    27    13    14    1
    28    14    15    2
    29    15    16    1
    30    16    17    2
    31    24    19    1
    32    17     9    1
    33    33    26   ar
    34    17    12    1
    35     7     8    1
    36     2     3    1
@<TRIPOS>MOLECULE
*****
 33 36 0 0 0
SMALL
GASTEIGER

@<TRIPOS>ATOM
      1 C         139.2650  139.0391  160.5998 C.3     1  UNL1        0.1459
      2 O         138.8124  140.1814  159.7394 O.3     1  UNL1       -0.3813
      3 H         137.8904  140.3983  159.9486 H       1  UNL1        0.2105
      4 C         140.6623  138.5096  160.4695 C.3     1  UNL1        0.1204
      5 O         141.7016  141.2686  159.9148 O.2     1  UNL1       -0.2684
      6 C         142.2822  140.4601  161.0369 C.2     1  UNL1        0.2655
      7 N         141.7625  139.0806  161.3143 N.am    1  UNL1       -0.2972
      8 H         142.1435  138.5499  162.0508 H       1  UNL1        0.1499
      9 C         143.3823  141.0311  161.8817 C.2     1  UNL1        0.1571
     10 N         144.8441  141.0288  161.5451 N.2     1  UNL1       -0.1436
     11 N         145.5790  141.7009  162.6668 N.2     1  UNL1       -0.1519
     12 C         144.5715  142.1185  163.6966 C.2     1  UNL1        0.0865
     13 C         144.7149  142.8222  165.0135 C.3     1  UNL1        0.0736
     14 C         143.5007  143.1120  165.8451 C.2     1  UNL1       -0.0197
     15 C         142.1430  142.6980  165.3599 C.2     1  UNL1       -0.0041
     16 C         141.9996  141.9943  164.0430 C.2     1  UNL1        0.0026
     17 C         143.2138  141.7045  163.2114 C.2     1  UNL1        0.0395
     18 C         138.3202  138.4262  161.5907 C.3     1  UNL1        0.1034
     19 N         138.4727  138.7207  163.0537 N.3     1  UNL1       -0.2704
     20 C         138.9193  137.6403  163.9935 C.3     1  UNL1        0.0759
     21 C         139.0718  137.9348  165.4564 C.3     1  UNL1        0.0609
     22 C         138.7776  139.3095  165.9794 C.3     1  UNL1        0.1687
     23 C         138.3309  140.3899  165.0395 C.3     1  UNL1        0.0609
     24 C         138.1785  140.0954  163.5767 C.3     1  UNL1        0.0759
     25 O         138.9301  139.6039  167.4423 O.3     1  UNL1       -0.4790
     26 C         140.1647  140.2924  167.9442 C.ar    1  UNL1        0.1393
     27 C         141.5126  139.6749  167.7169 C.ar    1  UNL1        0.0378
     28 C         142.7472  140.3632  168.2187 C.ar    1  UNL1        0.0154
     29 C         142.6338  141.6691  168.9479 C.ar    1  UNL1        0.0684
     30 CL        143.8684  142.3575  169.4497 Cl      1  UNL1       -0.0814
     31 C         141.2859  142.2867  169.1752 C.ar    1  UNL1        0.0712
     32 CL        141.1725  143.5926  169.9044 Cl      1  UNL1       -0.0813
     33 C         140.0512  141.5983  168.6733 C.ar    1  UNL1        0.0491
@<TRIPOS>BOND
     1     5     6    2
     2     6     7   am
     3     7     4    1
     4     4     1    1
     5     1     2    1
     6     1    18    1
     7    18    19    1
     8    19    20    1
     9    20    21    1
    10    21    22    1
    11    22    25    1
    12    25    26    1
    13    26    27   ar
    14    27    28   ar
    15    28    29   ar
    16    29    30    1
    17    29    31   ar
    18    31    32    1
    19    31    33   ar
    20    22    23    1
    21    23    24    1
    22     6     9    1
    23     9    10    2
    24    10    11    1
    25    11    12    2
    26    12    13    1
    27    13    14    1
    28    14    15    2
    29    15    16    1
    30    16    17    2
    31    24    19    1
    32    17     9    1
    33    33    26   ar
    34    17    12    1
    35     7     8    1
    36     2     3    1
@<TRIPOS>MOLECULE
*****
 33 36 0 0 0
SMALL
GASTEIGER

@<TRIPOS>ATOM
      1 C         143.0561  139.6510  160.4180 C.3     1  UNL1        0.1459
      2 O         144.0563  140.5967  159.8220 O.3     1  UNL1       -0.3813
      3 H         144.9507  140.3303  160.0865 H       1  UNL1        0.2105
      4 C         141.5918  139.8460  160.1579 C.3     1  UNL1        0.1204
      5 O         141.8729  142.7765  159.5809 O.2     1  UNL1       -0.2684
      6 C         140.9548  142.3118  160.6722 C.2     1  UNL1        0.2655
      7 N         140.8143  140.8464  160.9607 N.am    1  UNL1       -0.2972
      8 H         140.2117  140.5413  161.6770 H       1  UNL1        0.1499
      9 C         140.1773  143.3122  161.4751 C.2     1  UNL1        0.1571
     10 N         139.3872  144.4621  160.9242 N.2     1  UNL1       -0.1436
     11 N         138.7749  145.1989  162.0785 N.2     1  UNL1       -0.1519
     12 C         139.1866  144.5044  163.3426 C.2     1  UNL1        0.0865
     13 C         138.8843  144.7831  164.7852 C.3     1  UNL1        0.0736
     14 C         139.4486  143.8957  165.8547 C.2     1  UNL1       -0.0197
     15 C         140.3153  142.7296  165.4818 C.2     1  UNL1       -0.0041
     16 C         140.6177  142.4509  164.0393 C.2     1  UNL1        0.0026
     17 C         140.0533  143.3383  162.9697 C.2     1  UNL1        0.0395
     18 C         143.5203  138.5101  161.2742 C.3     1  UNL1        0.1034
     19 N         143.3809  138.5866  162.7658 N.3     1  UNL1       -0.2704
     20 C         144.4552  139.2356  163.5871 C.3     1  UNL1        0.0759
     21 C         144.3158  139.3121  165.0786 C.3     1  UNL1        0.0609
     22 C         143.1020  138.7397  165.7488 C.3     1  UNL1        0.1687
     23 C         142.0277  138.0907  164.9275 C.3     1  UNL1        0.0609
     24 C         142.1671  138.0142  163.4360 C.3     1  UNL1        0.0759
     25 O         142.9626  138.8163  167.2404 O.3     1  UNL1       -0.4790
     26 C         142.3135  140.0116  167.8727 C.ar    1  UNL1        0.1393
     27 C         142.9736  141.3559  167.7883 C.ar    1  UNL1        0.0378
     28 C         142.3245  142.5512  168.4206 C.ar    1  UNL1        0.0154
     29 C         141.0152  142.4022  169.1373 C.ar    1  UNL1        0.0684
     30 CL        140.3661  143.5976  169.7696 Cl      1  UNL1       -0.0814
     31 C         140.3551  141.0579  169.2217 C.ar    1  UNL1        0.0712
     32 CL        139.0459  140.9090  169.9384 Cl      1  UNL1       -0.0813
     33 C         141.0042  139.8626  168.5894 C.ar    1  UNL1        0.0491
@<TRIPOS>BOND
     1     5     6    2
     2     6     7   am
     3     7     4    1
     4     4     1    1
     5     1     2    1
     6     1    18    1
     7    18    19    1
     8    19    20    1
     9    20    21    1
    10    21    22    1
    11    22    25    1
    12    25    26    1
    13    26    27   ar
    14    27    28   ar
    15    28    29   ar
    16    29    30    1
    17    29    31   ar
    18    31    32    1
    19    31    33   ar
    20    22    23    1
    21    23    24    1
    22     6     9    1
    23     9    10    2
    24    10    11    1
    25    11    12    2
    26    12    13    1
    27    13    14    1
    28    14    15    2
    29    15    16    1
    30    16    17    2
    31    24    19    1
    32    17     9    1
    33    33    26   ar
    34    17    12    1
    35     7     8    1
    36     2     3    1
@<TRIPOS>MOLECULE
*****
 33 36 0 0 0
SMALL
GASTEIGER

@<TRIPOS>ATOM
      1 C         137.9481  139.5632  160.4867 C.3     1  UNL1        0.1459
      2 O         136.4641  139.5475  160.2689 O.3     1  UNL1       -0.3813
      3 H         136.0691  138.8277  160.7854 H       1  UNL1        0.2105
      4 C         138.7969  140.5885  159.7952 C.3     1  UNL1        0.1204
      5 O         138.0527  143.1117  161.2373 O.2     1  UNL1       -0.2684
      6 C         139.4643  142.6073  161.2883 C.2     1  UNL1        0.2655
      7 N         139.8365  141.3457  160.5673 N.am    1  UNL1       -0.2972
      8 H         140.7630  141.0146  160.6008 H       1  UNL1        0.1499
      9 C         140.5039  143.3645  162.0604 C.2     1  UNL1        0.1571
     10 N         140.7777  144.8359  161.9616 N.2     1  UNL1       -0.1436
     11 N         141.8952  145.1639  162.9069 N.2     1  UNL1       -0.1519
     12 C         142.3120  143.8951  163.5900 C.2     1  UNL1        0.0865
     13 C         143.3634  143.6088  164.6208 C.3     1  UNL1        0.0736
     14 C         143.5549  142.2104  165.1283 C.2     1  UNL1       -0.0197
     15 C         142.6949  141.0982  164.6051 C.2     1  UNL1       -0.0041
     16 C         141.6436  141.3846  163.5743 C.2     1  UNL1        0.0026
     17 C         141.4521  142.7830  163.0668 C.2     1  UNL1        0.0395
     18 C         138.5835  138.5534  161.3959 C.3     1  UNL1        0.1034
     19 N         138.6553  138.8132  162.8716 N.3     1  UNL1       -0.2704
     20 C         138.0592  140.0656  163.4425 C.3     1  UNL1        0.0759
     21 C         138.1311  140.3253  164.9181 C.3     1  UNL1        0.0609
     22 C         138.7990  139.3327  165.8227 C.3     1  UNL1        0.1687
     23 C         139.3952  138.0802  165.2518 C.3     1  UNL1        0.0609
     24 C         139.3233  137.8205  163.7762 C.3     1  UNL1        0.0759
     25 O         138.8709  139.5925  167.2983 O.3     1  UNL1       -0.4790
     26 C         140.0277  140.3575  167.8698 C.ar    1  UNL1        0.1393
     27 C         140.3234  141.7449  167.3824 C.ar    1  UNL1        0.0378
     28 C         141.4801  142.5100  167.9539 C.ar    1  UNL1        0.0154
     29 C         142.3412  141.8875  169.0126 C.ar    1  UNL1        0.0684
     30 CL        143.4980  142.6526  169.5841 Cl      1  UNL1       -0.0814
     31 C         142.0456  140.5001  169.5000 C.ar    1  UNL1        0.0712
     32 CL        142.9067  139.8777  170.5588 Cl      1  UNL1       -0.0813
     33 C         140.8888  139.7350  168.9285 C.ar    1  UNL1        0.0491
@<TRIPOS>BOND
     1     5     6    2
     2     6     7   am
     3     7     4    1
     4     4     1    1
     5     1     2    1
     6     1    18    1
     7    18    19    1
     8    19    20    1
     9    20    21    1
    10    21    22    1
    11    22    25    1
    12    25    26    1
    13    26    27   ar
    14    27    28   ar
    15    28    29   ar
    16    29    30    1
    17    29    31   ar
    18    31    32    1
    19    31    33   ar
    20    22    23    1
    21    23    24    1
    22     6     9    1
    23     9    10    2
    24    10    11    1
    25    11    12    2
    26    12    13    1
    27    13    14    1
    28    14    15    2
    29    15    16    1
    30    16    17    2
    31    24    19    1
    32    17     9    1
    33    33    26   ar
    34    17    12    1
    35     7     8    1
    36     2     3    1
@<TRIPOS>MOLECULE
*****
 33 36 0 0 0
SMALL
GASTEIGER

@<TRIPOS>ATOM
      1 C         140.1919  138.4743  157.8246 C.3     1  UNL1        0.1459
      2 O         139.3907  137.3325  157.2729 O.3     1  UNL1       -0.3813
      3 H         139.9811  136.5884  157.0764 H       1  UNL1        0.2105
      4 C         139.5087  139.7526  158.2106 C.3     1  UNL1        0.1204
      5 O         136.8251  139.7805  159.5514 O.2     1  UNL1       -0.2684
      6 C         138.0547  140.1499  160.3269 C.2     1  UNL1        0.2655
      7 N         139.3966  140.1360  159.6565 N.am    1  UNL1       -0.2972
      8 H         140.2037  140.3785  160.1654 H       1  UNL1        0.1499
      9 C         137.9426  140.5333  161.7727 C.2     1  UNL1        0.1571
     10 N         137.4772  141.8582  162.3000 N.2     1  UNL1       -0.1436
     11 N         137.5232  141.8028  163.7983 N.2     1  UNL1       -0.1519
     12 C         138.0171  140.4437  164.1969 C.2     1  UNL1        0.0865
     13 C         138.2642  139.8192  165.5382 C.3     1  UNL1        0.0736
     14 C         138.7706  138.4101  165.6275 C.2     1  UNL1       -0.0197
     15 C         139.0298  137.6255  164.3756 C.2     1  UNL1       -0.0041
     16 C         138.7827  138.2500  163.0344 C.2     1  UNL1        0.0026
     17 C         138.2763  139.6591  162.9451 C.2     1  UNL1        0.0395
     18 C         141.6765  138.3378  157.9902 C.3     1  UNL1        0.1034
     19 N         142.3241  138.7157  159.2894 N.3     1  UNL1       -0.2704
     20 C         142.0474  137.9137  160.5265 C.3     1  UNL1        0.0759
     21 C         142.6951  138.2915  161.8256 C.3     1  UNL1        0.0609
     22 C         143.6193  139.4713  161.8877 C.3     1  UNL1        0.1687
     23 C         143.8960  140.2733  160.6507 C.3     1  UNL1        0.0609
     24 C         143.2484  139.8954  159.3515 C.3     1  UNL1        0.0759
     25 O         144.2669  139.8491  163.1869 O.3     1  UNL1       -0.4790
     26 C         143.4440  139.9353  164.4381 C.ar    1  UNL1        0.1393
     27 C         143.5471  138.8604  165.4791 C.ar    1  UNL1        0.0378
     28 C         142.7242  138.9466  166.7303 C.ar    1  UNL1        0.0154
     29 C         141.7982  140.1077  166.9403 C.ar    1  UNL1        0.0684
     30 CL        140.9753  140.1939  168.1915 Cl      1  UNL1       -0.0814
     31 C         141.6951  141.1827  165.8993 C.ar    1  UNL1        0.0712
     32 CL        140.7691  142.3439  166.1094 Cl      1  UNL1       -0.0813
     33 C         142.5180  141.0965  164.6481 C.ar    1  UNL1        0.0491
@<TRIPOS>BOND
     1     5     6    2
     2     6     7   am
     3     7     4    1
     4     4     1    1
     5     1     2    1
     6     1    18    1
     7    18    19    1
     8    19    20    1
     9    20    21    1
    10    21    22    1
    11    22    25    1
    12    25    26    1
    13    26    27   ar
    14    27    28   ar
    15    28    29   ar
    16    29    30    1
    17    29    31   ar
    18    31    32    1
    19    31    33   ar
    20    22    23    1
    21    23    24    1
    22     6     9    1
    23     9    10    2
    24    10    11    1
    25    11    12    2
    26    12    13    1
    27    13    14    1
    28    14    15    2
    29    15    16    1
    30    16    17    2
    31    24    19    1
    32    17     9    1
    33    33    26   ar
    34    17    12    1
    35     7     8    1
    36     2     3    1
@<TRIPOS>MOLECULE
*****
 33 36 0 0 0
SMALL
GASTEIGER

@<TRIPOS>ATOM
      1 C         143.6600  142.6114  160.1275 C.3     1  UNL1        0.1459
      2 O         143.0485  143.7770  159.4082 O.3     1  UNL1       -0.3813
      3 H         143.2908  144.5998  159.8613 H       1  UNL1        0.2105
      4 C         143.4344  141.2168  159.6235 C.3     1  UNL1        0.1204
      5 O         140.5728  141.1817  160.5236 O.2     1  UNL1       -0.2684
      6 C         141.5254  140.1309  161.0117 C.2     1  UNL1        0.2655
      7 N         142.9563  140.1485  160.5617 N.am    1  UNL1       -0.2972
      8 H         143.5816  139.4588  160.8820 H       1  UNL1        0.1499
      9 C         141.0473  139.0626  161.9499 C.2     1  UNL1        0.1571
     10 N         141.4434  137.6163  161.9145 N.2     1  UNL1       -0.1436
     11 N         140.7300  136.9130  163.0309 N.2     1  UNL1       -0.1519
     12 C         139.8931  137.9246  163.7563 C.2     1  UNL1        0.0865
     13 C         138.9777  137.8076  164.9388 C.3     1  UNL1        0.0736
     14 C         138.2585  139.0192  165.4533 C.2     1  UNL1       -0.0197
     15 C         138.4546  140.3478  164.7851 C.2     1  UNL1       -0.0041
     16 C         139.3699  140.4648  163.6026 C.2     1  UNL1        0.0026
     17 C         140.0892  139.2532  163.0882 C.2     1  UNL1        0.0395
     18 C         144.4971  142.8404  161.3510 C.3     1  UNL1        0.1034
     19 N         144.1782  142.1148  162.6246 N.3     1  UNL1       -0.2704
     20 C         142.9764  142.5084  163.4312 C.3     1  UNL1        0.0759
     21 C         142.6576  141.7828  164.7047 C.3     1  UNL1        0.0609
     22 C         143.5405  140.6637  165.1716 C.3     1  UNL1        0.1687
     23 C         144.7423  140.2701  164.3649 C.3     1  UNL1        0.0609
     24 C         145.0612  140.9956  163.0914 C.3     1  UNL1        0.0759
     25 O         143.2216  139.9382  166.4451 O.3     1  UNL1       -0.4790
     26 C         142.3162  140.5689  167.4612 C.ar    1  UNL1        0.1393
     27 C         140.8849  140.1321  167.5641 C.ar    1  UNL1        0.0378
     28 C         139.9794  140.7628  168.5801 C.ar    1  UNL1        0.0154
     29 C         140.5053  141.8303  169.4933 C.ar    1  UNL1        0.0684
     30 CL        139.5998  142.4609  170.5093 Cl      1  UNL1       -0.0814
     31 C         141.9366  142.2671  169.3904 C.ar    1  UNL1        0.0712
     32 CL        142.4624  143.3346  170.3036 Cl      1  UNL1       -0.0813
     33 C         142.8421  141.6364  168.3744 C.ar    1  UNL1        0.0491
@<TRIPOS>BOND
     1     5     6    2
     2     6     7   am
     3     7     4    1
     4     4     1    1
     5     1     2    1
     6     1    18    1
     7    18    19    1
     8    19    20    1
     9    20    21    1
    10    21    22    1
    11    22    25    1
    12    25    26    1
    13    26    27   ar
    14    27    28   ar
    15    28    29   ar
    16    29    30    1
    17    29    31   ar
    18    31    32    1
    19    31    33   ar
    20    22    23    1
    21    23    24    1
    22     6     9    1
    23     9    10    2
    24    10    11    1
    25    11    12    2
    26    12    13    1
    27    13    14    1
    28    14    15    2
    29    15    16    1
    30    16    17    2
    31    24    19    1
    32    17     9    1
    33    33    26   ar
    34    17    12    1
    35     7     8    1
    36     2     3    1
@<TRIPOS>MOLECULE
*****
 33 36 0 0 0
SMALL
GASTEIGER

@<TRIPOS>ATOM
      1 C         138.6612  140.1564  159.2077 C.3     1  UNL1        0.1459
      2 O         138.7050  139.2665  158.0010 O.3     1  UNL1       -0.3813
      3 H         137.9848  138.6186  158.0508 H       1  UNL1        0.2105
      4 C         139.6756  141.2492  159.3709 C.3     1  UNL1        0.1204
      5 O         139.3364  143.8467  160.8330 O.2     1  UNL1       -0.2684
      6 C         140.1776  142.7561  161.4270 C.2     1  UNL1        0.2655
      7 N         140.3472  141.4573  160.6960 N.am    1  UNL1       -0.2972
      8 H         140.8992  140.7414  161.0858 H       1  UNL1        0.1499
      9 C         140.8491  142.9642  162.7521 C.2     1  UNL1        0.1571
     10 N         140.1754  143.3788  164.0265 N.2     1  UNL1       -0.1436
     11 N         141.2222  143.4650  165.0974 N.2     1  UNL1       -0.1519
     12 C         142.5429  143.1036  164.4848 C.2     1  UNL1        0.0865
     13 C         143.9256  143.0164  165.0595 C.3     1  UNL1        0.0736
     14 C         145.0777  142.6196  164.1848 C.2     1  UNL1       -0.0197
     15 C         144.8471  142.3101  162.7354 C.2     1  UNL1       -0.0041
     16 C         143.4644  142.3973  162.1606 C.2     1  UNL1        0.0026
     17 C         142.3123  142.7941  163.0353 C.2     1  UNL1        0.0395
     18 C         137.6030  139.9535  160.2513 C.3     1  UNL1        0.1034
     19 N         137.9946  139.6796  161.6732 N.3     1  UNL1       -0.2704
     20 C         138.7394  138.4239  162.0174 C.3     1  UNL1        0.0759
     21 C         139.1309  138.1501  163.4393 C.3     1  UNL1        0.0609
     22 C         138.7778  139.1320  164.5169 C.3     1  UNL1        0.1687
     23 C         138.0330  140.3877  164.1726 C.3     1  UNL1        0.0609
     24 C         137.6414  140.6615  162.7508 C.3     1  UNL1        0.0759
     25 O         139.1693  138.8581  165.9387 O.3     1  UNL1       -0.4790
     26 C         140.2071  139.7095  166.6082 C.ar    1  UNL1        0.1393
     27 C         141.6639  139.4354  166.3789 C.ar    1  UNL1        0.0378
     28 C         142.7017  140.2867  167.0484 C.ar    1  UNL1        0.0154
     29 C         142.2826  141.4121  167.9471 C.ar    1  UNL1        0.0684
     30 CL        143.3204  142.2635  168.6166 Cl      1  UNL1       -0.0814
     31 C         140.8258  141.6863  168.1764 C.ar    1  UNL1        0.0712
     32 CL        140.4068  142.8117  169.0751 Cl      1  UNL1       -0.0813
     33 C         139.7880  140.8349  167.5069 C.ar    1  UNL1        0.0491
@<TRIPOS>BOND
     1     5     6    2
     2     6     7   am
     3     7     4    1
     4     4     1    1
     5     1     2    1
     6     1    18    1
     7    18    19    1
     8    19    20    1
     9    20    21    1
    10    21    22    1
    11    22    25    1
    12    25    26    1
    13    26    27   ar
    14    27    28   ar
    15    28    29   ar
    16    29    30    1
    17    29    31   ar
    18    31    32    1
    19    31    33   ar
    20    22    23    1
    21    23    24    1
    22     6     9    1
    23     9    10    2
    24    10    11    1
    25    11    12    2
    26    12    13    1
    27    13    14    1
    28    14    15    2
    29    15    16    1
    30    16    17    2
    31    24    19    1
    32    17     9    1
    33    33    26   ar
    34    17    12    1
    35     7     8    1
    36     2     3    1
