@<TRIPOS>MOLECULE
*****
 35 39 0 0 0
SMALL
GASTEIGER

@<TRIPOS>ATOM
      1 N         138.0977  141.1589  164.4226 N.3     1  UNL1       -0.2724
      2 C         137.4469  141.3325  163.0823 C.3     1  UNL1        0.0721
      3 C         137.7015  142.7371  162.6217 C.3     1  UNL1        0.0187
      4 C         138.5097  143.4317  163.6773 C.3     1  UNL1        0.0178
      5 C         138.7546  142.4563  164.7903 C.3     1  UNL1        0.0721
      6 C         138.0926  139.9076  165.2498 C.3     1  UNL1        0.0768
      7 C         139.1545  138.8683  165.0443 C.3     1  UNL1        0.0439
      8 C         140.4956  139.0270  165.6975 C.ar    1  UNL1       -0.0193
      9 C         141.6806  138.2739  165.1698 C.ar    1  UNL1       -0.0041
     10 C         143.0216  138.4326  165.8229 C.ar    1  UNL1        0.0012
     11 C         143.1775  139.3444  167.0037 C.ar    1  UNL1        0.0191
     12 C         141.9925  140.0975  167.5314 C.ar    1  UNL1        0.0825
     13 C         140.6515  139.9388  166.8783 C.ar    1  UNL1        0.0149
     14 N         142.1484  141.0093  168.7123 N.ar    1  UNL1       -0.2282
     15 C         143.1427  142.1251  168.8394 C.ar    1  UNL1        0.1020
     16 C         142.9462  142.7708  170.1790 C.ar    1  UNL1        0.0431
     17 C         141.8305  142.0539  170.8798 C.ar    1  UNL1        0.1221
     18 N         141.3374  140.9652  169.9733 N.ar    1  UNL1       -0.1635
     19 C         138.8754  137.6704  164.1858 C.3     1  UNL1        0.0474
     20 O         140.2847  137.5433  162.0067 O.co2   1  UNL1       -0.5492
     21 C         138.9717  137.7789  162.6928 C.2     1  UNL1        0.0507
     22 O         137.7549  138.1230  161.8858 O.co2   1  UNL1       -0.5492
     23 C         138.9888  144.8522  163.6286 C.3     1  UNL1        0.0077
     24 C         140.2505  145.1933  162.8925 C.3     1  UNL1        0.0459
     25 C         141.5242  144.4677  163.2109 C.ar    1  UNL1        0.0603
     26 C         142.6061  145.1574  163.9880 C.ar    1  UNL1        0.0145
     27 C         143.8797  144.4319  164.3065 C.ar    1  UNL1       -0.0003
     28 C         144.0715  143.0166  163.8479 C.ar    1  UNL1        0.0092
     29 C         142.9896  142.3269  163.0709 C.ar    1  UNL1        0.1240
     30 N         141.7159  143.0525  162.7524 N.ar    1  UNL1       -0.2356
     31 N         143.1813  140.9117  162.6124 N.pl3   1  UNL1       -0.3184
     32 C         144.4549  140.1862  162.9309 C.3     1  UNL1        0.0885
     33 C         145.5368  140.8759  163.7079 C.3     1  UNL1        0.0260
     34 C         145.3451  142.2911  164.1664 C.3     1  UNL1        0.0309
     35 H         142.4712  140.4590  162.1024 H       1  UNL1        0.1482
@<TRIPOS>UNITY_ATOM_ATTR
20 1
charge -1
@<TRIPOS>BOND
     1    20    21   ar
     2    21    22   ar
     3    21    19    1
     4     7    19    1
     5     7     6    1
     6     6     1    1
     7     1     2    1
     8     2     3    1
     9     3     4    1
    10     4    23    1
    11    23    24    1
    12    24    25    1
    13    25    26   ar
    14    26    27   ar
    15    27    28   ar
    16    28    29   ar
    17    29    30   ar
    18    29    31    1
    19    31    32    1
    20    32    33    1
    21    33    34    1
    22     4     5    1
    23     7     8    1
    24     8     9   ar
    25     9    10   ar
    26    10    11   ar
    27    11    12   ar
    28    12    14    1
    29    14    15   ar
    30    15    16   ar
    31    16    17   ar
    32    17    18   ar
    33    12    13   ar
    34     5     1    1
    35    13     8   ar
    36    30    25   ar
    37    18    14   ar
    38    34    28    1
    39    31    35    1
@<TRIPOS>MOLECULE
*****
 35 39 0 0 0
SMALL
GASTEIGER

@<TRIPOS>ATOM
      1 N         141.7488  144.0334  164.3570 N.3     1  UNL1       -0.2724
      2 C         142.4291  144.9131  163.3502 C.3     1  UNL1        0.0721
      3 C         143.8402  144.4300  163.1911 C.3     1  UNL1        0.0187
      4 C         144.0321  143.2519  164.0995 C.3     1  UNL1        0.0178
      5 C         142.7395  143.0068  164.8201 C.3     1  UNL1        0.0721
      6 C         140.3274  144.1585  164.8195 C.3     1  UNL1        0.0768
      7 C         139.3366  143.0787  164.4992 C.3     1  UNL1        0.0439
      8 C         139.2396  141.8657  165.3763 C.ar    1  UNL1       -0.0193
      9 C         138.2856  140.7621  165.0271 C.ar    1  UNL1       -0.0041
     10 C         138.1887  139.5491  165.9042 C.ar    1  UNL1        0.0012
     11 C         139.0457  139.4397  167.1304 C.ar    1  UNL1        0.0191
     12 C         139.9997  140.5433  167.4796 C.ar    1  UNL1        0.0825
     13 C         140.0966  141.7563  166.6025 C.ar    1  UNL1        0.0149
     14 N         140.8567  140.4340  168.7058 N.ar    1  UNL1       -0.2282
     15 C         142.1271  139.6456  168.8262 C.ar    1  UNL1        0.1020
     16 C         142.6493  139.8182  170.2216 C.ar    1  UNL1        0.0431
     17 C         141.7017  140.7132  170.9638 C.ar    1  UNL1        0.1221
     18 N         140.5937  141.0938  170.0269 N.ar    1  UNL1       -0.1635
     19 C         138.4430  143.2119  163.3019 C.3     1  UNL1        0.0474
     20 O         138.1259  143.1338  160.7243 O.co2   1  UNL1       -0.5492
     21 C         138.9510  142.8366  161.9413 C.2     1  UNL1        0.0507
     22 O         140.2841  142.1641  161.7977 O.co2   1  UNL1       -0.5492
     23 C         145.2948  142.4583  164.2593 C.3     1  UNL1        0.0077
     24 C         145.3561  141.0405  163.7733 C.3     1  UNL1        0.0459
     25 C         144.1571  140.1492  163.9075 C.ar    1  UNL1        0.0603
     26 C         143.9648  139.3329  165.1511 C.ar    1  UNL1        0.0145
     27 C         142.7659  138.4415  165.2853 C.ar    1  UNL1       -0.0003
     28 C         141.7591  138.3665  164.1759 C.ar    1  UNL1        0.0092
     29 C         141.9514  139.1829  162.9322 C.ar    1  UNL1        0.1240
     30 N         143.1504  140.0742  162.7981 N.ar    1  UNL1       -0.2356
     31 N         140.9447  139.1079  161.8228 N.pl3   1  UNL1       -0.3184
     32 C         139.7457  138.2166  161.9570 C.3     1  UNL1        0.0885
     33 C         139.5535  137.4003  163.2006 C.3     1  UNL1        0.0260
     34 C         140.5602  137.4752  164.3101 C.3     1  UNL1        0.0309
     35 H         141.0708  139.6437  161.0066 H       1  UNL1        0.1482
@<TRIPOS>UNITY_ATOM_ATTR
20 1
charge -1
@<TRIPOS>BOND
     1    20    21   ar
     2    21    22   ar
     3    21    19    1
     4     7    19    1
     5     7     6    1
     6     6     1    1
     7     1     2    1
     8     2     3    1
     9     3     4    1
    10     4    23    1
    11    23    24    1
    12    24    25    1
    13    25    26   ar
    14    26    27   ar
    15    27    28   ar
    16    28    29   ar
    17    29    30   ar
    18    29    31    1
    19    31    32    1
    20    32    33    1
    21    33    34    1
    22     4     5    1
    23     7     8    1
    24     8     9   ar
    25     9    10   ar
    26    10    11   ar
    27    11    12   ar
    28    12    14    1
    29    14    15   ar
    30    15    16   ar
    31    16    17   ar
    32    17    18   ar
    33    12    13   ar
    34     5     1    1
    35    13     8   ar
    36    30    25   ar
    37    18    14   ar
    38    34    28    1
    39    31    35    1
@<TRIPOS>MOLECULE
*****
 35 39 0 0 0
SMALL
GASTEIGER

@<TRIPOS>ATOM
      1 N         142.7435  140.6763  167.2097 N.3     1  UNL1       -0.2724
      2 C         143.0401  142.0331  166.6429 C.3     1  UNL1        0.0721
      3 C         143.8324  141.8461  165.3830 C.3     1  UNL1        0.0187
      4 C         144.0254  140.3737  165.1711 C.3     1  UNL1        0.0178
      5 C         143.3524  139.6508  166.3000 C.3     1  UNL1        0.0721
      6 C         141.9731  140.3945  168.4655 C.3     1  UNL1        0.0768
      7 C         140.4944  140.6421  168.5098 C.3     1  UNL1        0.0439
      8 C         139.6832  140.5663  167.2503 C.ar    1  UNL1       -0.0193
      9 C         138.8595  139.3466  166.9609 C.ar    1  UNL1       -0.0041
     10 C         138.0484  139.2708  165.7014 C.ar    1  UNL1        0.0012
     11 C         138.0609  140.4149  164.7313 C.ar    1  UNL1        0.0191
     12 C         138.8845  141.6346  165.0207 C.ar    1  UNL1        0.0825
     13 C         139.6956  141.7104  166.2802 C.ar    1  UNL1        0.0149
     14 N         138.8970  142.7787  164.0506 N.ar    1  UNL1       -0.2282
     15 C         137.7580  143.7158  163.7778 C.ar    1  UNL1        0.1020
     16 C         138.2077  144.7027  162.7417 C.ar    1  UNL1        0.0431
     17 C         139.6247  144.3756  162.3741 C.ar    1  UNL1        0.1221
     18 N         140.0506  143.1864  163.1831 N.ar    1  UNL1       -0.1635
     19 C         139.8268  140.9655  169.8135 C.3     1  UNL1        0.0474
     20 O         140.0517  143.5514  169.7003 O.co2   1  UNL1       -0.5492
     21 C         140.0975  142.2767  170.4899 C.2     1  UNL1        0.0507
     22 O         140.4140  142.3133  171.9556 O.co2   1  UNL1       -0.5492
     23 C         144.7621  139.7363  164.0305 C.3     1  UNL1        0.0077
     24 C         144.1488  139.7118  162.6618 C.3     1  UNL1        0.0459
     25 C         142.7169  139.2997  162.4888 C.ar    1  UNL1        0.0603
     26 C         142.2798  137.9213  162.8874 C.ar    1  UNL1        0.0145
     27 C         140.8480  137.5091  162.7144 C.ar    1  UNL1       -0.0003
     28 C         139.8532  138.4754  162.1427 C.ar    1  UNL1        0.0092
     29 C         140.2903  139.8538  161.7441 C.ar    1  UNL1        0.1240
     30 N         141.7222  140.2659  161.9171 N.ar    1  UNL1       -0.2356
     31 N         139.2956  140.8201  161.1724 N.pl3   1  UNL1       -0.3184
     32 C         137.8638  140.4079  160.9994 C.3     1  UNL1        0.0885
     33 C         137.4267  139.0295  161.3980 C.3     1  UNL1        0.0260
     34 C         138.4214  138.0632  161.9697 C.3     1  UNL1        0.0309
     35 H         139.5825  141.7248  160.9107 H       1  UNL1        0.1482
@<TRIPOS>UNITY_ATOM_ATTR
20 1
charge -1
@<TRIPOS>BOND
     1    20    21   ar
     2    21    22   ar
     3    21    19    1
     4     7    19    1
     5     7     6    1
     6     6     1    1
     7     1     2    1
     8     2     3    1
     9     3     4    1
    10     4    23    1
    11    23    24    1
    12    24    25    1
    13    25    26   ar
    14    26    27   ar
    15    27    28   ar
    16    28    29   ar
    17    29    30   ar
    18    29    31    1
    19    31    32    1
    20    32    33    1
    21    33    34    1
    22     4     5    1
    23     7     8    1
    24     8     9   ar
    25     9    10   ar
    26    10    11   ar
    27    11    12   ar
    28    12    14    1
    29    14    15   ar
    30    15    16   ar
    31    16    17   ar
    32    17    18   ar
    33    12    13   ar
    34     5     1    1
    35    13     8   ar
    36    30    25   ar
    37    18    14   ar
    38    34    28    1
    39    31    35    1
@<TRIPOS>MOLECULE
*****
 35 39 0 0 0
SMALL
GASTEIGER

@<TRIPOS>ATOM
      1 N         138.2403  140.9730  164.5963 N.3     1  UNL1       -0.2724
      2 C         138.0991  140.0296  165.7541 C.3     1  UNL1        0.0721
      3 C         138.5289  138.6672  165.2969 C.3     1  UNL1        0.0187
      4 C         138.9358  138.7684  163.8567 C.3     1  UNL1        0.0178
      5 C         138.7574  140.1935  163.4238 C.3     1  UNL1        0.0721
      6 C         137.9206  142.4384  164.6090 C.3     1  UNL1        0.0768
      7 C         139.0275  143.4468  164.6975 C.3     1  UNL1        0.0439
      8 C         140.3141  143.0903  165.3815 C.ar    1  UNL1       -0.0193
      9 C         141.6200  143.2773  164.6676 C.ar    1  UNL1       -0.0041
     10 C         142.9064  142.9207  165.3517 C.ar    1  UNL1        0.0012
     11 C         142.8870  142.3771  166.7496 C.ar    1  UNL1        0.0191
     12 C         141.5811  142.1901  167.4634 C.ar    1  UNL1        0.0825
     13 C         140.2946  142.5466  166.7794 C.ar    1  UNL1        0.0149
     14 N         141.5616  141.6464  168.8614 N.ar    1  UNL1       -0.2282
     15 C         140.3519  141.5107  169.7378 C.ar    1  UNL1        0.1020
     16 C         140.7911  140.9235  171.0463 C.ar    1  UNL1        0.0431
     17 C         142.2723  140.6964  170.9786 C.ar    1  UNL1        0.1221
     18 N         142.7484  141.1432  169.6281 N.ar    1  UNL1       -0.1635
     19 C         138.8480  144.8118  164.1019 C.3     1  UNL1        0.0474
     20 O         139.8046  146.2000  162.1250 O.co2   1  UNL1       -0.5492
     21 C         139.0314  145.0167  162.6273 C.2     1  UNL1        0.0507
     22 O         138.4417  144.0385  161.6551 O.co2   1  UNL1       -0.5492
     23 C         139.4336  137.6423  163.0000 C.3     1  UNL1        0.0077
     24 C         140.8231  137.1112  163.1924 C.3     1  UNL1        0.0459
     25 C         141.9583  138.0569  163.4515 C.ar    1  UNL1        0.0603
     26 C         142.6812  138.0188  164.7653 C.ar    1  UNL1        0.0145
     27 C         143.8163  138.9645  165.0244 C.ar    1  UNL1       -0.0003
     28 C         144.2287  139.9482  163.9697 C.ar    1  UNL1        0.0092
     29 C         143.5058  139.9863  162.6560 C.ar    1  UNL1        0.1240
     30 N         142.3706  139.0406  162.3969 N.ar    1  UNL1       -0.2356
     31 N         143.9181  140.9700  161.6013 N.pl3   1  UNL1       -0.3184
     32 C         145.0532  141.9156  161.8604 C.3     1  UNL1        0.0885
     33 C         145.7761  141.8775  163.1742 C.3     1  UNL1        0.0260
     34 C         145.3638  140.8938  164.2288 C.3     1  UNL1        0.0309
     35 H         143.4436  140.9950  160.7390 H       1  UNL1        0.1482
@<TRIPOS>UNITY_ATOM_ATTR
20 1
charge -1
@<TRIPOS>BOND
     1    20    21   ar
     2    21    22   ar
     3    21    19    1
     4     7    19    1
     5     7     6    1
     6     6     1    1
     7     1     2    1
     8     2     3    1
     9     3     4    1
    10     4    23    1
    11    23    24    1
    12    24    25    1
    13    25    26   ar
    14    26    27   ar
    15    27    28   ar
    16    28    29   ar
    17    29    30   ar
    18    29    31    1
    19    31    32    1
    20    32    33    1
    21    33    34    1
    22     4     5    1
    23     7     8    1
    24     8     9   ar
    25     9    10   ar
    26    10    11   ar
    27    11    12   ar
    28    12    14    1
    29    14    15   ar
    30    15    16   ar
    31    16    17   ar
    32    17    18   ar
    33    12    13   ar
    34     5     1    1
    35    13     8   ar
    36    30    25   ar
    37    18    14   ar
    38    34    28    1
    39    31    35    1
@<TRIPOS>MOLECULE
*****
 35 39 0 0 0
SMALL
GASTEIGER

@<TRIPOS>ATOM
      1 N         142.8789  138.5182  163.3509 N.3     1  UNL1       -0.2724
      2 C         143.0785  138.8793  161.9087 C.3     1  UNL1        0.0721
      3 C         144.1557  139.9206  161.8364 C.3     1  UNL1        0.0187
      4 C         144.6218  140.2032  163.2338 C.3     1  UNL1        0.0178
      5 C         143.8327  139.3364  164.1698 C.3     1  UNL1        0.0721
      6 C         141.8978  137.5150  163.8810 C.3     1  UNL1        0.0768
      7 C         140.4449  137.8721  163.9899 C.3     1  UNL1        0.0439
      8 C         139.9165  138.4880  165.2515 C.ar    1  UNL1       -0.0193
      9 C         138.5351  138.1511  165.7292 C.ar    1  UNL1       -0.0041
     10 C         138.0068  138.7671  166.9907 C.ar    1  UNL1        0.0012
     11 C         138.8599  139.7199  167.7746 C.ar    1  UNL1        0.0191
     12 C         140.2413  140.0568  167.2969 C.ar    1  UNL1        0.0825
     13 C         140.7696  139.4408  166.0354 C.ar    1  UNL1        0.0149
     14 N         141.0944  141.0096  168.0808 N.ar    1  UNL1       -0.2282
     15 C         142.5926  141.0774  168.0551 C.ar    1  UNL1        0.1020
     16 C         143.0232  142.1716  168.9863 C.ar    1  UNL1        0.0431
     17 C         141.7911  142.7801  169.5876 C.ar    1  UNL1        0.1221
     18 N         140.5989  142.0619  169.0279 N.ar    1  UNL1       -0.1635
     19 C         139.5205  137.6132  162.8374 C.3     1  UNL1        0.0474
     20 O         137.4704  138.6714  161.6426 O.co2   1  UNL1       -0.5492
     21 C         138.8944  138.7629  162.1052 C.2     1  UNL1        0.0507
     22 O         139.6923  140.0042  161.8356 O.co2   1  UNL1       -0.5492
     23 C         145.6896  141.1808  163.6263 C.3     1  UNL1        0.0077
     24 C         145.3204  142.4496  164.3362 C.3     1  UNL1        0.0459
     25 C         144.0018  143.1083  164.0581 C.ar    1  UNL1        0.0603
     26 C         143.8353  143.9688  162.8407 C.ar    1  UNL1        0.0145
     27 C         142.5167  144.6275  162.5625 C.ar    1  UNL1       -0.0003
     28 C         141.3646  144.4258  163.5017 C.ar    1  UNL1        0.0092
     29 C         141.5311  143.5653  164.7190 C.ar    1  UNL1        0.1240
     30 N         142.8497  142.9066  164.9972 N.ar    1  UNL1       -0.2356
     31 N         140.3790  143.3636  165.6582 N.pl3   1  UNL1       -0.3184
     32 C         139.0605  144.0223  165.3800 C.3     1  UNL1        0.0885
     33 C         138.8940  144.8828  164.1627 C.3     1  UNL1        0.0260
     34 C         140.0460  145.0845  163.2235 C.3     1  UNL1        0.0309
     35 H         140.4883  142.7988  166.4572 H       1  UNL1        0.1482
@<TRIPOS>UNITY_ATOM_ATTR
20 1
charge -1
@<TRIPOS>BOND
     1    20    21   ar
     2    21    22   ar
     3    21    19    1
     4     7    19    1
     5     7     6    1
     6     6     1    1
     7     1     2    1
     8     2     3    1
     9     3     4    1
    10     4    23    1
    11    23    24    1
    12    24    25    1
    13    25    26   ar
    14    26    27   ar
    15    27    28   ar
    16    28    29   ar
    17    29    30   ar
    18    29    31    1
    19    31    32    1
    20    32    33    1
    21    33    34    1
    22     4     5    1
    23     7     8    1
    24     8     9   ar
    25     9    10   ar
    26    10    11   ar
    27    11    12   ar
    28    12    14    1
    29    14    15   ar
    30    15    16   ar
    31    16    17   ar
    32    17    18   ar
    33    12    13   ar
    34     5     1    1
    35    13     8   ar
    36    30    25   ar
    37    18    14   ar
    38    34    28    1
    39    31    35    1
@<TRIPOS>MOLECULE
*****
 35 39 0 0 0
SMALL
GASTEIGER

@<TRIPOS>ATOM
      1 N         137.9527  140.5664  163.1731 N.3     1  UNL1       -0.2724
      2 C         137.8667  141.3855  161.9193 C.3     1  UNL1        0.0721
      3 C         137.7264  142.8255  162.3151 C.3     1  UNL1        0.0187
      4 C         137.7256  142.8965  163.8134 C.3     1  UNL1        0.0178
      5 C         137.8655  141.5003  164.3437 C.3     1  UNL1        0.0721
      6 C         138.1000  139.0754  163.2437 C.3     1  UNL1        0.0768
      7 C         139.0926  138.4637  164.1874 C.3     1  UNL1        0.0439
      8 C         140.5626  138.6529  163.9561 C.ar    1  UNL1       -0.0193
      9 C         141.5495  138.1935  164.9879 C.ar    1  UNL1       -0.0041
     10 C         143.0194  138.3828  164.7565 C.ar    1  UNL1        0.0012
     11 C         143.5024  139.0315  163.4933 C.ar    1  UNL1        0.0191
     12 C         142.5155  139.4910  162.4614 C.ar    1  UNL1        0.0825
     13 C         141.0456  139.3017  162.6928 C.ar    1  UNL1        0.0149
     14 N         142.9984  140.1398  161.1981 N.ar    1  UNL1       -0.2282
     15 C         143.8609  139.4987  160.1516 C.ar    1  UNL1        0.1020
     16 C         144.0992  140.5062  159.0663 C.ar    1  UNL1        0.0431
     17 C         143.3840  141.7701  159.4420 C.ar    1  UNL1        0.1221
     18 N         142.7037  141.5436  160.7596 N.ar    1  UNL1       -0.1635
     19 C         138.6153  137.6627  165.3624 C.3     1  UNL1        0.0474
     20 O         136.9429  137.8456  167.3423 O.co2   1  UNL1       -0.5492
     21 C         138.1427  138.3603  166.6034 C.2     1  UNL1        0.0507
     22 O         138.8697  139.5724  167.1055 O.co2   1  UNL1       -0.5492
     23 C         137.6060  144.1445  164.6369 C.3     1  UNL1        0.0077
     24 C         138.8257  144.7438  165.2719 C.3     1  UNL1        0.0459
     25 C         140.1633  144.0891  165.0921 C.ar    1  UNL1        0.0603
     26 C         140.6097  143.0207  166.0457 C.ar    1  UNL1        0.0145
     27 C         141.9472  142.3661  165.8660 C.ar    1  UNL1       -0.0003
     28 C         142.8386  142.7799  164.7326 C.ar    1  UNL1        0.0092
     29 C         142.3922  143.8483  163.7791 C.ar    1  UNL1        0.1240
     30 N         141.0546  144.5029  163.9588 N.ar    1  UNL1       -0.2356
     31 N         143.2835  144.2621  162.6458 N.pl3   1  UNL1       -0.3184
     32 C         144.6211  143.6075  162.4660 C.3     1  UNL1        0.0885
     33 C         145.0674  142.5391  163.4196 C.3     1  UNL1        0.0260
     34 C         144.1761  142.1253  164.5529 C.3     1  UNL1        0.0309
     35 H         142.9905  144.9633  162.0199 H       1  UNL1        0.1482
@<TRIPOS>UNITY_ATOM_ATTR
20 1
charge -1
@<TRIPOS>BOND
     1    20    21   ar
     2    21    22   ar
     3    21    19    1
     4     7    19    1
     5     7     6    1
     6     6     1    1
     7     1     2    1
     8     2     3    1
     9     3     4    1
    10     4    23    1
    11    23    24    1
    12    24    25    1
    13    25    26   ar
    14    26    27   ar
    15    27    28   ar
    16    28    29   ar
    17    29    30   ar
    18    29    31    1
    19    31    32    1
    20    32    33    1
    21    33    34    1
    22     4     5    1
    23     7     8    1
    24     8     9   ar
    25     9    10   ar
    26    10    11   ar
    27    11    12   ar
    28    12    14    1
    29    14    15   ar
    30    15    16   ar
    31    16    17   ar
    32    17    18   ar
    33    12    13   ar
    34     5     1    1
    35    13     8   ar
    36    30    25   ar
    37    18    14   ar
    38    34    28    1
    39    31    35    1
@<TRIPOS>MOLECULE
*****
 35 39 0 0 0
SMALL
GASTEIGER

@<TRIPOS>ATOM
      1 N         141.4231  137.9878  163.3851 N.3     1  UNL1       -0.2724
      2 C         140.2660  137.9373  162.4318 C.3     1  UNL1        0.0721
      3 C         139.0205  137.6818  163.2277 C.3     1  UNL1        0.0187
      4 C         139.4078  137.5743  164.6728 C.3     1  UNL1        0.0178
      5 C         140.8927  137.7634  164.7701 C.3     1  UNL1        0.0721
      6 C         142.8585  138.2216  163.0178 C.3     1  UNL1        0.0768
      7 C         143.6640  139.2489  163.7566 C.3     1  UNL1        0.0439
      8 C         143.5772  140.6942  163.3642 C.ar    1  UNL1       -0.0193
      9 C         144.8199  141.4451  162.9877 C.ar    1  UNL1       -0.0041
     10 C         144.7330  142.8903  162.5954 C.ar    1  UNL1        0.0012
     11 C         143.4034  143.5845  162.5796 C.ar    1  UNL1        0.0191
     12 C         142.1607  142.8336  162.9561 C.ar    1  UNL1        0.0825
     13 C         142.2476  141.3884  163.3484 C.ar    1  UNL1        0.0149
     14 N         140.8311  143.5278  162.9402 N.ar    1  UNL1       -0.2282
     15 C         140.5702  144.9221  162.4524 C.ar    1  UNL1        0.1020
     16 C         139.1069  145.2057  162.6201 C.ar    1  UNL1        0.0431
     17 C         138.4633  143.9867  163.2117 C.ar    1  UNL1        0.1221
     18 N         139.5290  142.9497  163.4095 N.ar    1  UNL1       -0.1635
     19 C         144.5562  138.8311  164.8876 C.3     1  UNL1        0.0474
     20 O         144.3993  137.3058  166.9850 O.co2   1  UNL1       -0.5492
     21 C         143.9689  138.5315  166.2349 C.2     1  UNL1        0.0507
     22 O         142.9512  139.4575  166.8322 O.co2   1  UNL1       -0.5492
     23 C         138.4741  137.3221  165.8193 C.3     1  UNL1        0.0077
     24 C         137.8410  138.4759  166.5388 C.3     1  UNL1        0.0459
     25 C         138.6997  139.5601  167.1195 C.ar    1  UNL1        0.0603
     26 C         139.3026  140.6005  166.2228 C.ar    1  UNL1        0.0145
     27 C         140.1614  141.6846  166.8034 C.ar    1  UNL1       -0.0003
     28 C         140.4172  141.7284  168.2809 C.ar    1  UNL1        0.0092
     29 C         139.8143  140.6880  169.1776 C.ar    1  UNL1        0.1240
     30 N         138.9555  139.6039  168.5968 N.ar    1  UNL1       -0.2356
     31 N         140.0701  140.7318  170.6549 N.pl3   1  UNL1       -0.3184
     32 C         140.9288  141.8159  171.2355 C.3     1  UNL1        0.0885
     33 C         141.5317  142.8563  170.3388 C.3     1  UNL1        0.0260
     34 C         141.2759  142.8126  168.8615 C.3     1  UNL1        0.0309
     35 H         139.6744  140.0489  171.2434 H       1  UNL1        0.1482
@<TRIPOS>UNITY_ATOM_ATTR
20 1
charge -1
@<TRIPOS>BOND
     1    20    21   ar
     2    21    22   ar
     3    21    19    1
     4     7    19    1
     5     7     6    1
     6     6     1    1
     7     1     2    1
     8     2     3    1
     9     3     4    1
    10     4    23    1
    11    23    24    1
    12    24    25    1
    13    25    26   ar
    14    26    27   ar
    15    27    28   ar
    16    28    29   ar
    17    29    30   ar
    18    29    31    1
    19    31    32    1
    20    32    33    1
    21    33    34    1
    22     4     5    1
    23     7     8    1
    24     8     9   ar
    25     9    10   ar
    26    10    11   ar
    27    11    12   ar
    28    12    14    1
    29    14    15   ar
    30    15    16   ar
    31    16    17   ar
    32    17    18   ar
    33    12    13   ar
    34     5     1    1
    35    13     8   ar
    36    30    25   ar
    37    18    14   ar
    38    34    28    1
    39    31    35    1
@<TRIPOS>MOLECULE
*****
 35 39 0 0 0
SMALL
GASTEIGER

@<TRIPOS>ATOM
      1 N         141.1042  142.5829  166.5587 N.3     1  UNL1       -0.2724
      2 C         142.0696  142.9531  165.4720 C.3     1  UNL1        0.0721
      3 C         141.3609  143.8624  164.5123 C.3     1  UNL1        0.0187
      4 C         139.9576  144.0542  165.0059 C.3     1  UNL1        0.0178
      5 C         139.7989  143.2635  166.2707 C.3     1  UNL1        0.0721
      6 C         141.3933  141.6892  167.7282 C.3     1  UNL1        0.0768
      7 C         140.5114  140.5079  168.0054 C.3     1  UNL1        0.0439
      8 C         140.0552  139.6312  166.8769 C.ar    1  UNL1       -0.0193
      9 C         138.6919  139.0069  166.9161 C.ar    1  UNL1       -0.0041
     10 C         138.2358  138.1302  165.7877 C.ar    1  UNL1        0.0012
     11 C         139.1430  137.8779  164.6200 C.ar    1  UNL1        0.0191
     12 C         140.5063  138.5022  164.5809 C.ar    1  UNL1        0.0825
     13 C         140.9624  139.3789  165.7093 C.ar    1  UNL1        0.0149
     14 N         141.4135  138.2499  163.4132 N.ar    1  UNL1       -0.2282
     15 C         142.8905  138.5081  163.3723 C.ar    1  UNL1        0.1020
     16 C         143.3928  138.1129  162.0154 C.ar    1  UNL1        0.0431
     17 C         142.2262  137.6104  161.2175 C.ar    1  UNL1        0.1221
     18 N         141.0029  137.6951  162.0816 N.ar    1  UNL1       -0.1635
     19 C         140.0856  140.2034  169.4111 C.3     1  UNL1        0.0474
     20 O         140.6879  141.0757  171.7832 O.co2   1  UNL1       -0.5492
     21 C         141.0683  140.3323  170.5370 C.2     1  UNL1        0.0507
     22 O         142.4314  139.7178  170.4169 O.co2   1  UNL1       -0.5492
     23 C         138.8988  144.8901  164.3500 C.3     1  UNL1        0.0077
     24 C         137.6934  144.2339  163.7446 C.3     1  UNL1        0.0459
     25 C         137.8620  143.0801  162.8011 C.ar    1  UNL1        0.0603
     26 C         137.6330  141.6780  163.2825 C.ar    1  UNL1        0.0145
     27 C         137.8016  140.5241  162.3390 C.ar    1  UNL1       -0.0003
     28 C         138.1991  140.7723  160.9140 C.ar    1  UNL1        0.0092
     29 C         138.4280  142.1744  160.4326 C.ar    1  UNL1        0.1240
     30 N         138.2594  143.3283  161.3762 N.ar    1  UNL1       -0.2356
     31 N         138.8255  142.4227  159.0078 N.pl3   1  UNL1       -0.3184
     32 C         138.9941  141.2688  158.0643 C.3     1  UNL1        0.0885
     33 C         138.7652  139.8668  158.5457 C.3     1  UNL1        0.0260
     34 C         138.3677  139.6185  159.9706 C.3     1  UNL1        0.0309
     35 H         138.9758  143.3429  158.6918 H       1  UNL1        0.1482
@<TRIPOS>UNITY_ATOM_ATTR
20 1
charge -1
@<TRIPOS>BOND
     1    20    21   ar
     2    21    22   ar
     3    21    19    1
     4     7    19    1
     5     7     6    1
     6     6     1    1
     7     1     2    1
     8     2     3    1
     9     3     4    1
    10     4    23    1
    11    23    24    1
    12    24    25    1
    13    25    26   ar
    14    26    27   ar
    15    27    28   ar
    16    28    29   ar
    17    29    30   ar
    18    29    31    1
    19    31    32    1
    20    32    33    1
    21    33    34    1
    22     4     5    1
    23     7     8    1
    24     8     9   ar
    25     9    10   ar
    26    10    11   ar
    27    11    12   ar
    28    12    14    1
    29    14    15   ar
    30    15    16   ar
    31    16    17   ar
    32    17    18   ar
    33    12    13   ar
    34     5     1    1
    35    13     8   ar
    36    30    25   ar
    37    18    14   ar
    38    34    28    1
    39    31    35    1
@<TRIPOS>MOLECULE
*****
 35 39 0 0 0
SMALL
GASTEIGER

@<TRIPOS>ATOM
      1 N         143.3545  143.5944  163.2460 N.3     1  UNL1       -0.2724
      2 C         143.2004  144.8597  164.0369 C.3     1  UNL1        0.0721
      3 C         141.8736  145.4659  163.6877 C.3     1  UNL1        0.0187
      4 C         141.2075  144.5754  162.6811 C.3     1  UNL1        0.0178
      5 C         142.1228  143.4187  162.4081 C.3     1  UNL1        0.0721
      6 C         144.5332  142.6677  163.2860 C.3     1  UNL1        0.0768
      7 C         144.3200  141.1878  163.4066 C.3     1  UNL1        0.0439
      8 C         143.7294  140.6149  164.6608 C.ar    1  UNL1       -0.0193
      9 C         143.5769  139.1299  164.8077 C.ar    1  UNL1       -0.0041
     10 C         142.9862  138.5571  166.0619 C.ar    1  UNL1        0.0012
     11 C         142.5481  139.4692  167.1692 C.ar    1  UNL1        0.0191
     12 C         142.7006  140.9542  167.0223 C.ar    1  UNL1        0.0825
     13 C         143.2912  141.5270  165.7681 C.ar    1  UNL1        0.0149
     14 N         142.2625  141.8664  168.1296 N.ar    1  UNL1       -0.2282
     15 C         140.9096  142.4992  168.2673 C.ar    1  UNL1        0.1020
     16 C         140.9112  143.3298  169.5164 C.ar    1  UNL1        0.0431
     17 C         142.2653  143.2102  170.1506 C.ar    1  UNL1        0.1221
     18 N         143.1004  142.3057  169.2935 N.ar    1  UNL1       -0.1635
     19 C         144.6974  140.2808  162.2730 C.3     1  UNL1        0.0474
     20 O         144.0999  139.3011  159.9421 O.co2   1  UNL1       -0.5492
     21 C         143.6693  139.8849  161.2550 C.2     1  UNL1        0.0507
     22 O         142.2107  140.0729  161.5499 O.co2   1  UNL1       -0.5492
     23 C         139.8625  144.8017  162.0570 C.3     1  UNL1        0.0077
     24 C         138.6643  144.0572  162.5670 C.3     1  UNL1        0.0459
     25 C         138.8413  142.7485  163.2784 C.ar    1  UNL1        0.0603
     26 C         138.8195  142.7008  164.7775 C.ar    1  UNL1        0.0145
     27 C         138.9964  141.3922  165.4889 C.ar    1  UNL1       -0.0003
     28 C         139.1953  140.1312  164.7012 C.ar    1  UNL1        0.0092
     29 C         139.2171  140.1789  163.2021 C.ar    1  UNL1        0.1240
     30 N         139.0401  141.4876  162.4907 N.ar    1  UNL1       -0.2356
     31 N         139.4160  138.9179  162.4144 N.pl3   1  UNL1       -0.3184
     32 C         139.5929  137.6093  163.1258 C.3     1  UNL1        0.0885
     33 C         139.5711  137.5616  164.6249 C.3     1  UNL1        0.0260
     34 C         139.3723  138.8226  165.4126 C.3     1  UNL1        0.0309
     35 H         139.4303  138.9492  161.4305 H       1  UNL1        0.1482
@<TRIPOS>UNITY_ATOM_ATTR
20 1
charge -1
@<TRIPOS>BOND
     1    20    21   ar
     2    21    22   ar
     3    21    19    1
     4     7    19    1
     5     7     6    1
     6     6     1    1
     7     1     2    1
     8     2     3    1
     9     3     4    1
    10     4    23    1
    11    23    24    1
    12    24    25    1
    13    25    26   ar
    14    26    27   ar
    15    27    28   ar
    16    28    29   ar
    17    29    30   ar
    18    29    31    1
    19    31    32    1
    20    32    33    1
    21    33    34    1
    22     4     5    1
    23     7     8    1
    24     8     9   ar
    25     9    10   ar
    26    10    11   ar
    27    11    12   ar
    28    12    14    1
    29    14    15   ar
    30    15    16   ar
    31    16    17   ar
    32    17    18   ar
    33    12    13   ar
    34     5     1    1
    35    13     8   ar
    36    30    25   ar
    37    18    14   ar
    38    34    28    1
    39    31    35    1
