@<TRIPOS>MOLECULE
*****
 27 30 0 0 0
SMALL
GASTEIGER

@<TRIPOS>ATOM
      1 C         141.4389  142.0832  166.2691 C.2     1  UNL1        0.0020
      2 C         140.9541  142.5186  167.6202 C.2     1  UNL1        0.0130
      3 C         141.2413  141.6758  168.8274 C.3     1  UNL1        0.1542
      4 C         140.4694  142.9538  168.9714 C.3     1  UNL1        0.0614
      5 C         139.9847  143.3891  170.3225 C.3     1  UNL1        0.0725
      6 N         140.2719  142.5463  171.5296 N.3     1  UNL1       -0.2972
      7 C         141.0439  141.2683  171.3857 C.3     1  UNL1        0.0725
      8 C         141.5286  140.8331  170.0346 C.3     1  UNL1        0.0614
      9 O         142.0133  140.3978  168.6834 O.3     1  UNL1       -0.4785
     10 C         142.4980  139.9625  167.3323 C.ar    1  UNL1        0.1386
     11 C         143.2700  138.6844  167.1883 C.ar    1  UNL1        0.0369
     12 C         143.7548  138.2492  165.8372 C.ar    1  UNL1        0.0031
     13 C         143.4675  139.0919  164.6300 C.ar    1  UNL1        0.0002
     14 C         142.6956  140.3699  164.7740 C.ar    1  UNL1        0.0030
     15 C         142.2108  140.8052  166.1251 C.ar    1  UNL1        0.0338
     16 H         139.3704  142.3013  171.9389 H       1  UNL1        0.1233
     17 C         140.5771  144.6115  162.6475 C.ar    1  UNL1        0.0534
     18 C         139.5268  143.6830  163.1812 C.ar    1  UNL1        0.0045
     19 C         139.8141  142.8403  164.3884 C.ar    1  UNL1        0.0001
     20 C         141.1516  142.9260  165.0619 C.ar    1  UNL1       -0.0001
     21 C         142.2020  143.8544  164.5282 C.ar    1  UNL1        0.0001
     22 C         141.9148  144.6972  163.3210 C.ar    1  UNL1        0.0045
     23 C         140.3375  145.7844  158.8638 C.3     1  UNL1        0.1109
     24 N         140.6247  144.9417  160.0710 N.am    1  UNL1       -0.2992
     25 C         140.2899  145.4542  161.4403 C.2     1  UNL1        0.2459
     26 O         139.6678  146.8095  161.6026 O.2     1  UNL1       -0.2701
     27 H         141.0330  144.0522  159.9645 H       1  UNL1        0.1498
@<TRIPOS>BOND
     1    23    24    1
     2    24    25   am
     3    25    26    2
     4    25    17    1
     5    17    18   ar
     6    18    19   ar
     7    19    20   ar
     8    20     1    1
     9     1     2    2
    10     2     3    1
    11     3     4    1
    12     4     5    1
    13     5     6    1
    14     6     7    1
    15     7     8    1
    16     3     9    1
    17     9    10    1
    18    10    11   ar
    19    11    12   ar
    20    12    13   ar
    21    13    14   ar
    22    14    15   ar
    23    20    21   ar
    24    21    22   ar
    25    22    17   ar
    26    15     1    1
    27     8     3    1
    28    15    10   ar
    29    24    27    1
    30     6    16    1
@<TRIPOS>MOLECULE
*****
 27 30 0 0 0
SMALL
GASTEIGER

@<TRIPOS>ATOM
      1 C         141.1038  142.1606  165.2864 C.2     1  UNL1        0.0020
      2 C         142.5149  141.8359  164.8947 C.2     1  UNL1        0.0130
      3 C         143.1143  142.4564  163.6676 C.3     1  UNL1        0.1542
      4 C         143.9260  141.5113  164.5030 C.3     1  UNL1        0.0614
      5 C         145.3370  141.1866  164.1113 C.3     1  UNL1        0.0725
      6 N         145.9364  141.8071  162.8842 N.3     1  UNL1       -0.2972
      7 C         145.1248  142.7522  162.0488 C.3     1  UNL1        0.0725
      8 C         143.7137  143.0768  162.4405 C.3     1  UNL1        0.0614
      9 O         142.3026  143.4015  162.8322 O.3     1  UNL1       -0.4785
     10 C         140.8915  143.7262  163.2239 C.ar    1  UNL1        0.1386
     11 C         140.0798  144.6713  162.3885 C.ar    1  UNL1        0.0369
     12 C         138.6687  144.9960  162.7802 C.ar    1  UNL1        0.0031
     13 C         138.0693  144.3755  164.0073 C.ar    1  UNL1        0.0002
     14 C         138.8810  143.4304  164.8427 C.ar    1  UNL1        0.0030
     15 C         140.2921  143.1057  164.4510 C.ar    1  UNL1        0.0338
     16 H         146.2163  141.0399  162.2731 H       1  UNL1        0.1233
     17 C         139.3056  140.2993  168.9677 C.ar    1  UNL1        0.0534
     18 C         139.1327  139.6384  167.6323 C.ar    1  UNL1        0.0045
     19 C         139.7322  140.2588  166.4052 C.ar    1  UNL1        0.0001
     20 C         140.5044  141.5402  166.5135 C.ar    1  UNL1       -0.0001
     21 C         140.6772  142.2011  167.8489 C.ar    1  UNL1        0.0001
     22 C         140.0778  141.5807  169.0760 C.ar    1  UNL1        0.0045
     23 C         136.6590  138.6660  171.4331 C.3     1  UNL1        0.1109
     24 N         137.2584  139.2865  170.2060 N.am    1  UNL1       -0.2992
     25 C         138.7062  139.6788  170.1947 C.2     1  UNL1        0.2459
     26 O         139.5546  139.4507  171.4106 O.2     1  UNL1       -0.2701
     27 H         136.7016  139.4362  169.4080 H       1  UNL1        0.1498
@<TRIPOS>BOND
     1    23    24    1
     2    24    25   am
     3    25    26    2
     4    25    17    1
     5    17    18   ar
     6    18    19   ar
     7    19    20   ar
     8    20     1    1
     9     1     2    2
    10     2     3    1
    11     3     4    1
    12     4     5    1
    13     5     6    1
    14     6     7    1
    15     7     8    1
    16     3     9    1
    17     9    10    1
    18    10    11   ar
    19    11    12   ar
    20    12    13   ar
    21    13    14   ar
    22    14    15   ar
    23    20    21   ar
    24    21    22   ar
    25    22    17   ar
    26    15     1    1
    27     8     3    1
    28    15    10   ar
    29    24    27    1
    30     6    16    1
@<TRIPOS>MOLECULE
*****
 27 30 0 0 0
SMALL
GASTEIGER

@<TRIPOS>ATOM
      1 C         141.2829  142.2561  164.8583 C.2     1  UNL1        0.0020
      2 C         140.5277  143.2931  164.0807 C.2     1  UNL1        0.0130
      3 C         141.1015  143.8412  162.8078 C.3     1  UNL1        0.1542
      4 C         139.7727  144.3299  163.3030 C.3     1  UNL1        0.0614
      5 C         139.0176  145.3668  162.5254 C.3     1  UNL1        0.0725
      6 N         139.5914  145.9149  161.2525 N.3     1  UNL1       -0.2972
      7 C         140.9202  145.4263  160.7572 C.3     1  UNL1        0.0725
      8 C         141.6753  144.3894  161.5349 C.3     1  UNL1        0.0614
      9 O         142.4304  143.3525  162.3125 O.3     1  UNL1       -0.4785
     10 C         143.1855  142.3156  163.0901 C.ar    1  UNL1        0.1386
     11 C         144.5144  141.8269  162.5949 C.ar    1  UNL1        0.0369
     12 C         145.2694  140.7900  163.3725 C.ar    1  UNL1        0.0031
     13 C         144.6957  140.2419  164.6454 C.ar    1  UNL1        0.0002
     14 C         143.3668  140.7305  165.1407 C.ar    1  UNL1        0.0030
     15 C         142.6117  141.7675  164.3630 C.ar    1  UNL1        0.0338
     16 H         139.6769  146.9235  161.3784 H       1  UNL1        0.1233
     17 C         139.5615  140.6116  168.6770 C.ar    1  UNL1        0.0534
     18 C         139.3594  139.8762  167.3854 C.ar    1  UNL1        0.0045
     19 C         139.9332  140.4244  166.1125 C.ar    1  UNL1        0.0001
     20 C         140.7091  141.7080  166.1312 C.ar    1  UNL1       -0.0001
     21 C         140.9112  142.4434  167.4229 C.ar    1  UNL1        0.0001
     22 C         140.3374  141.8953  168.6958 C.ar    1  UNL1        0.0045
     23 C         137.0495  138.8921  171.2232 C.3     1  UNL1        0.1109
     24 N         137.6233  139.4403  169.9503 N.am    1  UNL1       -0.2992
     25 C         138.9877  140.0634  169.9499 C.2     1  UNL1        0.2459
     26 O         139.7784  140.1384  171.2224 O.2     1  UNL1       -0.2701
     27 H         137.1044  139.3911  169.1151 H       1  UNL1        0.1498
@<TRIPOS>BOND
     1    23    24    1
     2    24    25   am
     3    25    26    2
     4    25    17    1
     5    17    18   ar
     6    18    19   ar
     7    19    20   ar
     8    20     1    1
     9     1     2    2
    10     2     3    1
    11     3     4    1
    12     4     5    1
    13     5     6    1
    14     6     7    1
    15     7     8    1
    16     3     9    1
    17     9    10    1
    18    10    11   ar
    19    11    12   ar
    20    12    13   ar
    21    13    14   ar
    22    14    15   ar
    23    20    21   ar
    24    21    22   ar
    25    22    17   ar
    26    15     1    1
    27     8     3    1
    28    15    10   ar
    29    24    27    1
    30     6    16    1
@<TRIPOS>MOLECULE
*****
 27 30 0 0 0
SMALL
GASTEIGER

@<TRIPOS>ATOM
      1 C         139.9338  141.9169  165.6750 C.2     1  UNL1        0.0020
      2 C         140.2732  142.4566  167.0328 C.2     1  UNL1        0.0130
      3 C         140.1547  141.5756  168.2411 C.3     1  UNL1        0.1542
      4 C         140.6125  142.9962  168.3906 C.3     1  UNL1        0.0614
      5 C         140.9518  143.5358  169.7484 C.3     1  UNL1        0.0725
      6 N         140.8333  142.6548  170.9566 N.3     1  UNL1       -0.2972
      7 C         140.3756  141.2343  170.8071 C.3     1  UNL1        0.0725
      8 C         140.0363  140.6947  169.4493 C.3     1  UNL1        0.0614
      9 O         139.6969  140.1550  168.0915 O.3     1  UNL1       -0.4785
     10 C         139.3576  139.6153  166.7337 C.ar    1  UNL1        0.1386
     11 C         138.8999  138.1947  166.5841 C.ar    1  UNL1        0.0369
     12 C         138.5606  137.6551  165.2263 C.ar    1  UNL1        0.0031
     13 C         138.6790  138.5360  164.0181 C.ar    1  UNL1        0.0002
     14 C         139.1367  139.9566  164.1676 C.ar    1  UNL1        0.0030
     15 C         139.4761  140.4963  165.5254 C.ar    1  UNL1        0.0338
     16 H         140.1766  143.1107  171.5901 H       1  UNL1        0.1233
     17 C         140.2891  144.5597  162.0502 C.ar    1  UNL1        0.0534
     18 C         139.0209  144.5517  162.8511 C.ar    1  UNL1        0.0045
     19 C         138.9025  143.6707  164.0593 C.ar    1  UNL1        0.0001
     20 C         140.0523  142.7978  164.4667 C.ar    1  UNL1       -0.0001
     21 C         141.3206  142.8058  163.6658 C.ar    1  UNL1        0.0001
     22 C         141.4390  143.6868  162.4575 C.ar    1  UNL1        0.0045
     23 C         141.5020  145.9780  158.5477 C.3     1  UNL1        0.1109
     24 N         141.3836  145.0970  159.7559 N.am    1  UNL1       -0.2992
     25 C         140.4076  145.4407  160.8419 C.2     1  UNL1        0.2459
     26 O         139.5500  146.6653  160.7196 O.2     1  UNL1       -0.2701
     27 H         141.9464  144.2933  159.8362 H       1  UNL1        0.1498
@<TRIPOS>BOND
     1    23    24    1
     2    24    25   am
     3    25    26    2
     4    25    17    1
     5    17    18   ar
     6    18    19   ar
     7    19    20   ar
     8    20     1    1
     9     1     2    2
    10     2     3    1
    11     3     4    1
    12     4     5    1
    13     5     6    1
    14     6     7    1
    15     7     8    1
    16     3     9    1
    17     9    10    1
    18    10    11   ar
    19    11    12   ar
    20    12    13   ar
    21    13    14   ar
    22    14    15   ar
    23    20    21   ar
    24    21    22   ar
    25    22    17   ar
    26    15     1    1
    27     8     3    1
    28    15    10   ar
    29    24    27    1
    30     6    16    1
@<TRIPOS>MOLECULE
*****
 27 30 0 0 0
SMALL
GASTEIGER

@<TRIPOS>ATOM
      1 C         141.3239  141.2956  166.3171 C.2     1  UNL1        0.0020
      2 C         141.9477  141.8403  167.5678 C.2     1  UNL1        0.0130
      3 C         141.3726  141.4880  168.9076 C.3     1  UNL1        0.1542
      4 C         142.5716  142.3849  168.8184 C.3     1  UNL1        0.0614
      5 C         143.1954  142.9295  170.0691 C.3     1  UNL1        0.0725
      6 N         142.6202  142.5772  171.4089 N.3     1  UNL1       -0.2972
      7 C         141.4213  141.6803  171.4981 C.3     1  UNL1        0.0725
      8 C         140.7975  141.1356  170.2474 C.3     1  UNL1        0.0614
      9 O         140.1736  140.5910  168.9967 O.3     1  UNL1       -0.4785
     10 C         139.5498  140.0463  167.7460 C.ar    1  UNL1        0.1386
     11 C         138.3508  139.1493  167.8352 C.ar    1  UNL1        0.0369
     12 C         137.7270  138.6047  166.5845 C.ar    1  UNL1        0.0031
     13 C         138.3021  138.9570  165.2447 C.ar    1  UNL1        0.0002
     14 C         139.5011  139.8539  165.1555 C.ar    1  UNL1        0.0030
     15 C         140.1249  140.3986  166.4062 C.ar    1  UNL1        0.0338
     16 H         142.3649  143.4557  171.8599 H       1  UNL1        0.1233
     17 C         143.0492  142.3525  162.2976 C.ar    1  UNL1        0.0534
     18 C         141.9373  143.1761  162.8766 C.ar    1  UNL1        0.0045
     19 C         141.3622  142.8238  164.2164 C.ar    1  UNL1        0.0001
     20 C         141.8990  141.6479  164.9772 C.ar    1  UNL1       -0.0001
     21 C         143.0110  140.8242  164.3983 C.ar    1  UNL1        0.0001
     22 C         143.5861  141.1765  163.0585 C.ar    1  UNL1        0.0045
     23 C         143.2914  143.4623  158.4950 C.3     1  UNL1        0.1109
     24 N         142.7162  143.1100  159.8349 N.am    1  UNL1       -0.2992
     25 C         143.6244  142.7048  160.9578 C.2     1  UNL1        0.2459
     26 O         145.1077  142.6519  160.7410 O.2     1  UNL1       -0.2701
     27 H         141.7427  143.1447  159.9772 H       1  UNL1        0.1498
@<TRIPOS>BOND
     1    23    24    1
     2    24    25   am
     3    25    26    2
     4    25    17    1
     5    17    18   ar
     6    18    19   ar
     7    19    20   ar
     8    20     1    1
     9     1     2    2
    10     2     3    1
    11     3     4    1
    12     4     5    1
    13     5     6    1
    14     6     7    1
    15     7     8    1
    16     3     9    1
    17     9    10    1
    18    10    11   ar
    19    11    12   ar
    20    12    13   ar
    21    13    14   ar
    22    14    15   ar
    23    20    21   ar
    24    21    22   ar
    25    22    17   ar
    26    15     1    1
    27     8     3    1
    28    15    10   ar
    29    24    27    1
    30     6    16    1
@<TRIPOS>MOLECULE
*****
 27 30 0 0 0
SMALL
GASTEIGER

@<TRIPOS>ATOM
      1 C         140.5912  141.0986  164.7954 C.2     1  UNL1        0.0020
      2 C         140.8334  142.5338  164.4325 C.2     1  UNL1        0.0130
      3 C         140.2496  143.0972  163.1708 C.3     1  UNL1        0.1542
      4 C         141.0757  143.9689  164.0695 C.3     1  UNL1        0.0614
      5 C         141.3179  145.4040  163.7066 C.3     1  UNL1        0.0725
      6 N         140.7341  145.9674  162.4450 N.3     1  UNL1       -0.2972
      7 C         139.9080  145.0957  161.5463 C.3     1  UNL1        0.0725
      8 C         139.6657  143.6606  161.9092 C.3     1  UNL1        0.0614
      9 O         139.4235  142.2254  162.2721 O.3     1  UNL1       -0.4785
     10 C         139.1812  140.7903  162.6351 C.ar    1  UNL1        0.1386
     11 C         138.3551  139.9185  161.7364 C.ar    1  UNL1        0.0369
     12 C         138.1129  138.4834  162.0993 C.ar    1  UNL1        0.0031
     13 C         138.6967  137.9200  163.3609 C.ar    1  UNL1        0.0002
     14 C         139.5228  138.7917  164.2596 C.ar    1  UNL1        0.0030
     15 C         139.7651  140.2269  163.8967 C.ar    1  UNL1        0.0338
     16 H         141.5156  146.3096  161.8860 H       1  UNL1        0.1233
     17 C         142.3428  139.4083  168.5802 C.ar    1  UNL1        0.0534
     18 C         141.0431  140.1559  168.6238 C.ar    1  UNL1        0.0045
     19 C         140.4592  140.7193  167.3622 C.ar    1  UNL1        0.0001
     20 C         141.1750  140.5352  166.0570 C.ar    1  UNL1       -0.0001
     21 C         142.4748  139.7876  166.0133 C.ar    1  UNL1        0.0001
     22 C         143.0587  139.2242  167.2749 C.ar    1  UNL1        0.0045
     23 C         144.0309  136.8749  171.1261 C.3     1  UNL1        0.1109
     24 N         143.4470  137.4383  169.8645 N.am    1  UNL1       -0.2992
     25 C         142.9266  138.8449  169.8418 C.2     1  UNL1        0.2459
     26 O         142.9901  139.6882  171.0808 O.2     1  UNL1       -0.2701
     27 H         143.4054  136.8849  169.0514 H       1  UNL1        0.1498
@<TRIPOS>BOND
     1    23    24    1
     2    24    25   am
     3    25    26    2
     4    25    17    1
     5    17    18   ar
     6    18    19   ar
     7    19    20   ar
     8    20     1    1
     9     1     2    2
    10     2     3    1
    11     3     4    1
    12     4     5    1
    13     5     6    1
    14     6     7    1
    15     7     8    1
    16     3     9    1
    17     9    10    1
    18    10    11   ar
    19    11    12   ar
    20    12    13   ar
    21    13    14   ar
    22    14    15   ar
    23    20    21   ar
    24    21    22   ar
    25    22    17   ar
    26    15     1    1
    27     8     3    1
    28    15    10   ar
    29    24    27    1
    30     6    16    1
@<TRIPOS>MOLECULE
*****
 27 30 0 0 0
SMALL
GASTEIGER

@<TRIPOS>ATOM
      1 C         140.3964  142.5061  161.4734 C.2     1  UNL1        0.0020
      2 C         141.8648  142.1999  161.4853 C.2     1  UNL1        0.0130
      3 C         142.6968  142.5621  162.6797 C.3     1  UNL1        0.1542
      4 C         143.3331  141.8938  161.4972 C.3     1  UNL1        0.0614
      5 C         144.8015  141.5876  161.5092 C.3     1  UNL1        0.0725
      6 N         145.6334  141.9499  162.7036 N.3     1  UNL1       -0.2972
      7 C         144.9971  142.6182  163.8861 C.3     1  UNL1        0.0725
      8 C         143.5287  142.9243  163.8741 C.3     1  UNL1        0.0614
      9 O         142.0603  143.2305  163.8622 O.3     1  UNL1       -0.4785
     10 C         140.5919  143.5366  163.8502 C.ar    1  UNL1        0.1386
     11 C         139.9555  144.2050  165.0327 C.ar    1  UNL1        0.0369
     12 C         138.4871  144.5112  165.0208 C.ar    1  UNL1        0.0031
     13 C         137.6552  144.1489  163.8264 C.ar    1  UNL1        0.0002
     14 C         138.2916  143.4806  162.6439 C.ar    1  UNL1        0.0030
     15 C         139.7600  143.1744  162.6558 C.ar    1  UNL1        0.0338
     16 H         146.3681  142.5750  162.3721 H       1  UNL1        0.1233
     17 C         137.9005  141.4194  157.8901 C.ar    1  UNL1        0.0534
     18 C         138.0842  140.4314  159.0037 C.ar    1  UNL1        0.0045
     19 C         138.9161  140.7936  160.1981 C.ar    1  UNL1        0.0001
     20 C         139.5644  142.1439  160.2789 C.ar    1  UNL1       -0.0001
     21 C         139.3808  143.1319  159.1653 C.ar    1  UNL1        0.0001
     22 C         138.5488  142.7697  157.9709 C.ar    1  UNL1        0.0045
     23 C         135.1937  141.6478  154.9969 C.3     1  UNL1        0.1109
     24 N         136.0256  142.0100  156.1913 N.am    1  UNL1       -0.2992
     25 C         137.0685  141.0572  156.6957 C.2     1  UNL1        0.2459
     26 O         137.2795  139.7421  156.0056 O.2     1  UNL1       -0.2701
     27 H         135.8871  142.8731  156.6442 H       1  UNL1        0.1498
@<TRIPOS>BOND
     1    23    24    1
     2    24    25   am
     3    25    26    2
     4    25    17    1
     5    17    18   ar
     6    18    19   ar
     7    19    20   ar
     8    20     1    1
     9     1     2    2
    10     2     3    1
    11     3     4    1
    12     4     5    1
    13     5     6    1
    14     6     7    1
    15     7     8    1
    16     3     9    1
    17     9    10    1
    18    10    11   ar
    19    11    12   ar
    20    12    13   ar
    21    13    14   ar
    22    14    15   ar
    23    20    21   ar
    24    21    22   ar
    25    22    17   ar
    26    15     1    1
    27     8     3    1
    28    15    10   ar
    29    24    27    1
    30     6    16    1
@<TRIPOS>MOLECULE
*****
 27 30 0 0 0
SMALL
GASTEIGER

@<TRIPOS>ATOM
      1 C         140.0013  140.3707  162.2297 C.2     1  UNL1        0.0020
      2 C         140.0456  141.8696  162.2681 C.2     1  UNL1        0.0130
      3 C         139.5712  142.6029  163.4876 C.3     1  UNL1        0.1542
      4 C         140.0899  143.3684  162.3066 C.3     1  UNL1        0.0614
      5 C         140.1343  144.8673  162.3450 C.3     1  UNL1        0.0725
      6 N         139.6598  145.6006  163.5645 N.3     1  UNL1       -0.2972
      7 C         139.1411  144.8351  164.7456 C.3     1  UNL1        0.0725
      8 C         139.0968  143.3363  164.7071 C.3     1  UNL1        0.0614
      9 O         139.0524  141.8374  164.6687 O.3     1  UNL1       -0.4785
     10 C         139.0081  140.3386  164.6302 C.ar    1  UNL1        0.1386
     11 C         138.4894  139.5730  165.8113 C.ar    1  UNL1        0.0369
     12 C         138.4451  138.0742  165.7728 C.ar    1  UNL1        0.0031
     13 C         138.9195  137.3408  164.5534 C.ar    1  UNL1        0.0002
     14 C         139.4382  138.1063  163.3723 C.ar    1  UNL1        0.0030
     15 C         139.4826  139.6052  163.4107 C.ar    1  UNL1        0.0338
     16 H         138.9080  146.2199  163.2618 H       1  UNL1        0.1233
     17 C         141.4246  138.1707  158.5713 C.ar    1  UNL1        0.0534
     18 C         139.9810  138.5575  158.6996 C.ar    1  UNL1        0.0045
     19 C         139.5066  139.2908  159.9191 C.ar    1  UNL1        0.0001
     20 C         140.4757  139.6374  161.0102 C.ar    1  UNL1       -0.0001
     21 C         141.9194  139.2506  160.8819 C.ar    1  UNL1        0.0001
     22 C         142.3938  138.5173  159.6624 C.ar    1  UNL1        0.0045
     23 C         141.4038  135.9048  155.3132 C.3     1  UNL1        0.1109
     24 N         140.9294  136.6381  156.5327 N.am    1  UNL1       -0.2992
     25 C         141.8990  137.4374  157.3518 C.2     1  UNL1        0.2459
     26 O         143.3431  137.5034  156.9514 O.2     1  UNL1       -0.2701
     27 H         139.9816  136.5948  156.7954 H       1  UNL1        0.1498
@<TRIPOS>BOND
     1    23    24    1
     2    24    25   am
     3    25    26    2
     4    25    17    1
     5    17    18   ar
     6    18    19   ar
     7    19    20   ar
     8    20     1    1
     9     1     2    2
    10     2     3    1
    11     3     4    1
    12     4     5    1
    13     5     6    1
    14     6     7    1
    15     7     8    1
    16     3     9    1
    17     9    10    1
    18    10    11   ar
    19    11    12   ar
    20    12    13   ar
    21    13    14   ar
    22    14    15   ar
    23    20    21   ar
    24    21    22   ar
    25    22    17   ar
    26    15     1    1
    27     8     3    1
    28    15    10   ar
    29    24    27    1
    30     6    16    1
@<TRIPOS>MOLECULE
*****
 27 30 0 0 0
SMALL
GASTEIGER

@<TRIPOS>ATOM
      1 C         142.0811  142.4505  161.4227 C.2     1  UNL1        0.0020
      2 C         141.7082  140.9980  161.3873 C.2     1  UNL1        0.0130
      3 C         142.0378  140.1104  162.5508 C.3     1  UNL1        0.1542
      4 C         141.3353  139.5455  161.3519 C.3     1  UNL1        0.0614
      5 C         140.9625  138.0930  161.3166 C.3     1  UNL1        0.0725
      6 N         141.2921  137.2055  162.4800 N.3     1  UNL1       -0.2972
      7 C         141.9946  137.7705  163.6789 C.3     1  UNL1        0.0725
      8 C         142.3675  139.2229  163.7142 C.3     1  UNL1        0.0614
      9 O         142.7404  140.6755  163.7497 O.3     1  UNL1       -0.4785
     10 C         143.1132  142.1279  163.7851 C.ar    1  UNL1        0.1386
     11 C         143.8157  142.6930  164.9839 C.ar    1  UNL1        0.0369
     12 C         144.1886  144.1454  165.0193 C.ar    1  UNL1        0.0031
     13 C         143.8589  145.0329  163.8559 C.ar    1  UNL1        0.0002
     14 C         143.1564  144.4680  162.6570 C.ar    1  UNL1        0.0030
     15 C         142.7836  143.0154  162.6216 C.ar    1  UNL1        0.0338
     16 H         141.8815  136.4549  162.1200 H       1  UNL1        0.1233
     17 C         141.0921  145.1130  157.9323 C.ar    1  UNL1        0.0534
     18 C         142.3775  144.3401  157.9454 C.ar    1  UNL1        0.0045
     19 C         142.7071  143.4525  159.1089 C.ar    1  UNL1        0.0001
     20 C         141.7514  143.3380  160.2593 C.ar    1  UNL1       -0.0001
     21 C         140.4659  144.1110  160.2462 C.ar    1  UNL1        0.0001
     22 C         140.1363  144.9985  159.0828 C.ar    1  UNL1        0.0045
     23 C         139.3097  147.8767  155.7108 C.3     1  UNL1        0.1109
     24 N         139.6393  146.9892  156.8743 N.am    1  UNL1       -0.2992
     25 C         140.7624  146.0005  156.7689 C.2     1  UNL1        0.2459
     26 O         141.5560  145.8994  155.4999 O.2     1  UNL1       -0.2701
     27 H         139.1185  147.0555  157.7071 H       1  UNL1        0.1498
@<TRIPOS>BOND
     1    23    24    1
     2    24    25   am
     3    25    26    2
     4    25    17    1
     5    17    18   ar
     6    18    19   ar
     7    19    20   ar
     8    20     1    1
     9     1     2    2
    10     2     3    1
    11     3     4    1
    12     4     5    1
    13     5     6    1
    14     6     7    1
    15     7     8    1
    16     3     9    1
    17     9    10    1
    18    10    11   ar
    19    11    12   ar
    20    12    13   ar
    21    13    14   ar
    22    14    15   ar
    23    20    21   ar
    24    21    22   ar
    25    22    17   ar
    26    15     1    1
    27     8     3    1
    28    15    10   ar
    29    24    27    1
    30     6    16    1
