@<TRIPOS>MOLECULE
*****
 43 46 0 0 0
SMALL
GASTEIGER

@<TRIPOS>ATOM
      1 C         142.6893  139.3341  159.7604 C.3     1  UNL1        0.0781
      2 C         143.0532  138.7959  161.1123 C.3     1  UNL1        0.0372
      3 C         143.8305  139.6456  162.0735 C.3     1  UNL1        0.0738
      4 N         144.2439  141.0335  161.6827 N.3     1  UNL1       -0.2726
      5 C         143.8799  141.5718  160.3307 C.3     1  UNL1        0.0738
      6 C         143.1026  140.7221  159.3696 C.3     1  UNL1        0.0372
      7 N         141.9120  138.4844  158.7992 N.am    1  UNL1       -0.2808
      8 C         140.4411  138.7142  158.6151 C.2     1  UNL1        0.2300
      9 O         139.6638  137.8645  157.6539 O.2     1  UNL1       -0.2745
     10 C         142.9884  137.6391  156.5910 C.3     1  UNL1        0.0233
     11 C         142.6055  137.4050  158.0222 C.3     1  UNL1        0.0934
     12 C         139.7476  139.7937  159.3921 C.3     1  UNL1        0.1116
     13 C         139.4350  139.5893  160.8449 C.ar    1  UNL1       -0.0130
     14 C         139.6960  140.6896  161.8303 C.ar    1  UNL1       -0.0025
     15 C         139.3833  140.4852  163.2830 C.ar    1  UNL1        0.0180
     16 C         138.8097  139.1804  163.7503 C.ar    1  UNL1        0.1057
     17 C         138.5487  138.0800  162.7649 C.ar    1  UNL1        0.0180
     18 C         138.8613  138.2845  161.3122 C.ar    1  UNL1       -0.0025
     19 S         138.4970  138.9760  165.2031 S.O2    1  UNL1        0.0104
     20 C         138.1844  138.7715  166.6558 C.3     1  UNL1        0.1816
     21 O         138.8907  137.5334  165.0848 O.2     1  UNL1       -0.1686
     22 O         138.1033  140.4185  165.3214 O.2     1  UNL1       -0.1686
     23 C         145.0211  141.8832  162.6439 C.3     1  UNL1        0.0724
     24 C         144.3701  143.0683  163.2932 C.3     1  UNL1        0.0217
     25 C         143.0372  142.9176  163.9645 C.3     1  UNL1        0.0238
     26 C         141.8254  143.5842  163.3839 C.ar    1  UNL1       -0.0231
     27 C         140.5771  143.7175  164.2048 C.ar    1  UNL1       -0.0086
     28 C         139.3652  144.3842  163.6242 C.ar    1  UNL1       -0.0225
     29 C         138.1169  144.5174  164.4450 C.3     1  UNL1        0.0310
     30 C         139.4018  144.9177  162.2227 C.ar    1  UNL1       -0.0085
     31 C         140.6502  144.7844  161.4019 C.ar    1  UNL1       -0.0225
     32 C         140.6868  145.3179  160.0004 C.3     1  UNL1        0.0310
     33 C         141.8620  144.1177  161.9824 C.ar    1  UNL1       -0.0086
     34 C         142.9160  142.1001  165.2163 C.3     1  UNL1        0.0070
     35 C         143.2668  142.7046  166.5436 C.3     1  UNL1        0.0195
     36 C         143.1456  141.8872  167.7955 C.3     1  UNL1        0.0954
     37 N         142.6738  140.4653  167.7201 N.3     1  UNL1       -0.1594
     38 C         142.3230  139.8609  166.3928 C.3     1  UNL1        0.0954
     39 C         142.4442  140.6783  165.1409 C.3     1  UNL1        0.0195
     40 S         142.5526  139.6479  168.9719 S.O2    1  UNL1        0.0457
     41 C         142.4314  138.8305  170.2238 C.3     1  UNL1        0.1960
     42 O         143.3159  138.5342  168.3185 O.2     1  UNL1       -0.1572
     43 O         141.7893  140.7617  169.6252 O.2     1  UNL1       -0.1572
@<TRIPOS>BOND
     1    10    11    1
     2    11     7    1
     3     7     8   am
     4     8     9    2
     5     8    12    1
     6    12    13    1
     7    13    14   ar
     8    14    15   ar
     9    15    16   ar
    10    16    19    1
    11    19    20    1
    12    19    21    2
    13    19    22    2
    14    16    17   ar
    15    17    18   ar
    16     7     1    1
    17     1     2    1
    18     2     3    1
    19     3     4    1
    20     4    23    1
    21    23    24    1
    22    25    24    1
    23    25    26    1
    24    26    27   ar
    25    27    28   ar
    26    28    29    1
    27    28    30   ar
    28    30    31   ar
    29    31    32    1
    30    31    33   ar
    31    25    34    1
    32    34    35    1
    33    35    36    1
    34    36    37    1
    35    37    40    1
    36    40    41    1
    37    40    42    2
    38    40    43    2
    39    37    38    1
    40    38    39    1
    41     4     5    1
    42     5     6    1
    43    18    13   ar
    44     6     1    1
    45    33    26   ar
    46    39    34    1
@<TRIPOS>MOLECULE
*****
 43 46 0 0 0
SMALL
GASTEIGER

@<TRIPOS>ATOM
      1 C         142.7062  139.1860  159.7518 C.3     1  UNL1        0.0781
      2 C         143.0077  138.6374  161.1149 C.3     1  UNL1        0.0372
      3 C         143.7954  139.4551  162.0952 C.3     1  UNL1        0.0738
      4 N         144.2815  140.8215  161.7123 N.3     1  UNL1       -0.2726
      5 C         143.9801  141.3702  160.3492 C.3     1  UNL1        0.0738
      6 C         143.1924  140.5525  159.3689 C.3     1  UNL1        0.0372
      7 N         141.9186  138.3683  158.7715 N.am    1  UNL1       -0.2808
      8 C         140.4597  138.6479  158.5629 C.2     1  UNL1        0.2300
      9 O         139.6720  137.8301  157.5826 O.2     1  UNL1       -0.2745
     10 C         143.0386  137.5123  156.5892 C.3     1  UNL1        0.0233
     11 C         142.5898  137.2710  157.9999 C.3     1  UNL1        0.0934
     12 C         139.7885  139.7452  159.3345 C.3     1  UNL1        0.1116
     13 C         139.4787  139.5574  160.7901 C.ar    1  UNL1       -0.0130
     14 C         139.7552  140.6637  161.7645 C.ar    1  UNL1       -0.0025
     15 C         139.4454  140.4759  163.2201 C.ar    1  UNL1        0.0180
     16 C         138.8592  139.1818  163.7013 C.ar    1  UNL1        0.1057
     17 C         138.5828  138.0754  162.7268 C.ar    1  UNL1        0.0180
     18 C         138.8925  138.2632  161.2713 C.ar    1  UNL1       -0.0025
     19 S         138.5494  138.9940  165.1569 S.O2    1  UNL1        0.0104
     20 C         138.2397  138.8063  166.6125 C.3     1  UNL1        0.1816
     21 O         138.1292  140.4307  165.2528 O.2     1  UNL1       -0.1686
     22 O         138.9696  137.5573  165.0611 O.2     1  UNL1       -0.1686
     23 C         145.0692  141.6392  162.6926 C.3     1  UNL1        0.0724
     24 C         144.4590  142.8624  163.3101 C.3     1  UNL1        0.0217
     25 C         143.1236  142.7740  163.9876 C.3     1  UNL1        0.0238
     26 C         141.9359  143.4756  163.3985 C.ar    1  UNL1       -0.0231
     27 C         141.9860  143.9781  161.9861 C.ar    1  UNL1       -0.0086
     28 C         140.7982  144.6797  161.3971 C.ar    1  UNL1       -0.0225
     29 C         140.8483  145.1822  159.9846 C.3     1  UNL1        0.0310
     30 C         139.5603  144.8788  162.2204 C.ar    1  UNL1       -0.0085
     31 C         139.5102  144.3762  163.6329 C.ar    1  UNL1       -0.0225
     32 C         138.2722  144.5753  164.4563 C.3     1  UNL1        0.0310
     33 C         140.6979  143.6747  164.2219 C.ar    1  UNL1       -0.0086
     34 C         142.9759  141.9839  165.2540 C.3     1  UNL1        0.0070
     35 C         142.5635  140.5429  165.1953 C.3     1  UNL1        0.0195
     36 C         142.4159  139.7528  166.4618 C.3     1  UNL1        0.0954
     37 N         142.6806  140.4038  167.7870 N.3     1  UNL1       -0.1594
     38 C         143.0929  141.8447  167.8458 C.3     1  UNL1        0.0954
     39 C         143.2406  142.6349  166.5793 C.3     1  UNL1        0.0195
     40 S         142.5329  139.6137  169.0535 S.O2    1  UNL1        0.0457
     41 C         142.3853  138.8236  170.3200 C.3     1  UNL1        0.1960
     42 O         141.7440  140.7354  169.6612 O.2     1  UNL1       -0.1572
     43 O         143.3218  138.4920  168.4457 O.2     1  UNL1       -0.1572
@<TRIPOS>BOND
     1    10    11    1
     2    11     7    1
     3     7     8   am
     4     8     9    2
     5     8    12    1
     6    12    13    1
     7    13    14   ar
     8    14    15   ar
     9    15    16   ar
    10    16    19    1
    11    19    20    1
    12    19    21    2
    13    19    22    2
    14    16    17   ar
    15    17    18   ar
    16     7     1    1
    17     1     2    1
    18     2     3    1
    19     3     4    1
    20     4    23    1
    21    23    24    1
    22    25    24    1
    23    25    26    1
    24    26    27   ar
    25    27    28   ar
    26    28    29    1
    27    28    30   ar
    28    30    31   ar
    29    31    32    1
    30    31    33   ar
    31    25    34    1
    32    34    35    1
    33    35    36    1
    34    36    37    1
    35    37    40    1
    36    40    41    1
    37    40    42    2
    38    40    43    2
    39    37    38    1
    40    38    39    1
    41     4     5    1
    42     5     6    1
    43    18    13   ar
    44     6     1    1
    45    33    26   ar
    46    39    34    1
@<TRIPOS>MOLECULE
*****
 43 46 0 0 0
SMALL
GASTEIGER

@<TRIPOS>ATOM
      1 C         140.6901  138.3731  160.8833 C.3     1  UNL1        0.0781
      2 C         139.3406  139.0183  160.9947 C.3     1  UNL1        0.0372
      3 C         138.5599  138.9088  162.2709 C.3     1  UNL1        0.0738
      4 N         139.1288  138.1541  163.4357 N.3     1  UNL1       -0.2726
      5 C         140.4784  137.5088  163.3243 C.3     1  UNL1        0.0738
      6 C         141.2590  137.6183  162.0481 C.3     1  UNL1        0.0372
      7 N         141.4707  138.4826  159.6072 N.am    1  UNL1       -0.2808
      8 C         142.9577  138.6756  159.6518 C.2     1  UNL1        0.2300
      9 O         143.7383  138.7851  158.3756 O.2     1  UNL1       -0.2745
     10 C         140.4941  139.6478  157.5005 C.3     1  UNL1        0.0233
     11 C         140.7646  138.3992  158.2865 C.3     1  UNL1        0.0934
     12 C         143.6638  138.7590  160.9725 C.3     1  UNL1        0.1116
     13 C         143.7547  140.0717  161.6928 C.ar    1  UNL1       -0.0130
     14 C         143.7520  141.3550  160.9163 C.ar    1  UNL1       -0.0025
     15 C         143.8429  142.6676  161.6367 C.ar    1  UNL1        0.0180
     16 C         143.9364  142.6968  163.1335 C.ar    1  UNL1        0.1057
     17 C         143.9391  141.4134  163.9099 C.ar    1  UNL1        0.0180
     18 C         143.8483  140.1009  163.1896 C.ar    1  UNL1       -0.0025
     19 S         144.0273  144.0094  163.8538 S.O2    1  UNL1        0.0104
     20 C         144.1181  145.3220  164.5741 C.3     1  UNL1        0.1816
     21 O         143.8698  143.3001  165.1661 O.2     1  UNL1       -0.1686
     22 O         144.1847  144.7187  162.5415 O.2     1  UNL1       -0.1686
     23 C         138.3481  138.0445  164.7118 C.3     1  UNL1        0.0724
     24 C         138.2773  139.2125  165.6503 C.3     1  UNL1        0.0217
     25 C         139.4292  140.1684  165.7463 C.3     1  UNL1        0.0238
     26 C         140.5736  139.8734  166.6701 C.ar    1  UNL1       -0.0231
     27 C         140.5169  140.3203  168.1009 C.ar    1  UNL1       -0.0086
     28 C         141.6613  140.0253  169.0247 C.ar    1  UNL1       -0.0225
     29 C         141.6046  140.4721  170.4554 C.3     1  UNL1        0.0310
     30 C         142.8624  139.2835  168.5177 C.ar    1  UNL1       -0.0085
     31 C         142.9191  138.8366  167.0869 C.ar    1  UNL1       -0.0225
     32 C         144.1203  138.0948  166.5799 C.3     1  UNL1        0.0310
     33 C         141.7748  139.1316  166.1631 C.ar    1  UNL1       -0.0086
     34 C         139.4369  141.4193  164.9186 C.3     1  UNL1        0.0070
     35 C         140.3972  141.5556  163.7743 C.3     1  UNL1        0.0195
     36 C         140.4049  142.8065  162.9466 C.3     1  UNL1        0.0954
     37 N         139.4522  143.9211  163.2630 N.3     1  UNL1       -0.1594
     38 C         138.4918  143.7848  164.4072 C.3     1  UNL1        0.0954
     39 C         138.4842  142.5338  165.2350 C.3     1  UNL1        0.0195
     40 S         139.4598  145.1720  162.4353 S.O2    1  UNL1        0.0457
     41 C         139.4675  146.4229  161.6075 C.3     1  UNL1        0.1960
     42 O         137.9664  145.1008  162.3140 O.2     1  UNL1       -0.1572
     43 O         140.9531  145.2431  162.5565 O.2     1  UNL1       -0.1572
@<TRIPOS>BOND
     1    10    11    1
     2    11     7    1
     3     7     8   am
     4     8     9    2
     5     8    12    1
     6    12    13    1
     7    13    14   ar
     8    14    15   ar
     9    15    16   ar
    10    16    19    1
    11    19    20    1
    12    19    21    2
    13    19    22    2
    14    16    17   ar
    15    17    18   ar
    16     7     1    1
    17     1     2    1
    18     2     3    1
    19     3     4    1
    20     4    23    1
    21    23    24    1
    22    25    24    1
    23    25    26    1
    24    26    27   ar
    25    27    28   ar
    26    28    29    1
    27    28    30   ar
    28    30    31   ar
    29    31    32    1
    30    31    33   ar
    31    25    34    1
    32    34    35    1
    33    35    36    1
    34    36    37    1
    35    37    40    1
    36    40    41    1
    37    40    42    2
    38    40    43    2
    39    37    38    1
    40    38    39    1
    41     4     5    1
    42     5     6    1
    43    18    13   ar
    44     6     1    1
    45    33    26   ar
    46    39    34    1
@<TRIPOS>MOLECULE
*****
 43 46 0 0 0
SMALL
GASTEIGER

@<TRIPOS>ATOM
      1 C         141.0163  138.5763  160.5098 C.3     1  UNL1        0.0781
      2 C         141.5763  137.6819  161.5759 C.3     1  UNL1        0.0372
      3 C         140.7986  137.4381  162.8351 C.3     1  UNL1        0.0738
      4 N         139.4609  138.0887  163.0283 N.3     1  UNL1       -0.2726
      5 C         138.9009  138.9831  161.9622 C.3     1  UNL1        0.0738
      6 C         139.6786  139.2269  160.7030 C.3     1  UNL1        0.0372
      7 N         141.7940  138.8200  159.2505 N.am    1  UNL1       -0.2808
      8 C         143.2718  139.0688  159.3180 C.2     1  UNL1        0.2300
      9 O         144.0495  139.3126  158.0587 O.2     1  UNL1       -0.2745
     10 C         141.1339  137.5898  157.0595 C.3     1  UNL1        0.0233
     11 C         141.0941  138.8151  157.9239 C.3     1  UNL1        0.0934
     12 C         143.9717  139.0738  160.6446 C.3     1  UNL1        0.1116
     13 C         144.0186  140.3299  161.4632 C.ar    1  UNL1       -0.0130
     14 C         143.7536  141.6570  160.8163 C.ar    1  UNL1       -0.0025
     15 C         143.8005  142.9130  161.6349 C.ar    1  UNL1        0.0180
     16 C         144.1124  142.8420  163.1004 C.ar    1  UNL1        0.1057
     17 C         144.3774  141.5149  163.7473 C.ar    1  UNL1        0.0180
     18 C         144.3305  140.2588  162.9287 C.ar    1  UNL1       -0.0025
     19 S         144.1592  144.0981  163.9190 S.O2    1  UNL1        0.0104
     20 C         144.2061  145.3542  164.7375 C.3     1  UNL1        0.1816
     21 O         144.2407  144.9137  162.6628 O.2     1  UNL1       -0.1686
     22 O         144.0777  143.2825  165.1752 O.2     1  UNL1       -0.1686
     23 C         138.6832  137.8449  164.2876 C.3     1  UNL1        0.0724
     24 C         138.4500  138.9678  165.2543 C.3     1  UNL1        0.0217
     25 C         139.5215  139.9911  165.4879 C.3     1  UNL1        0.0238
     26 C         140.6169  139.7180  166.4755 C.ar    1  UNL1       -0.0231
     27 C         141.8640  139.0100  166.0356 C.ar    1  UNL1       -0.0086
     28 C         142.9595  138.7368  167.0233 C.ar    1  UNL1       -0.0225
     29 C         144.2065  138.0288  166.5834 C.3     1  UNL1        0.0310
     30 C         142.8078  139.1717  168.4508 C.ar    1  UNL1       -0.0085
     31 C         141.5607  139.8797  168.8907 C.ar    1  UNL1       -0.0225
     32 C         141.4091  140.3145  170.3184 C.3     1  UNL1        0.0310
     33 C         140.4653  140.1528  167.9031 C.ar    1  UNL1       -0.0086
     34 C         139.4976  141.2876  164.7340 C.3     1  UNL1        0.0070
     35 C         138.1882  141.8879  164.3154 C.3     1  UNL1        0.0195
     36 C         138.1643  143.1843  163.5615 C.3     1  UNL1        0.0954
     37 N         139.4499  143.8806  163.2260 N.3     1  UNL1       -0.1594
     38 C         140.7593  143.2805  163.6445 C.3     1  UNL1        0.0954
     39 C         140.7832  141.9839  164.3985 C.3     1  UNL1        0.0195
     40 S         139.4260  145.1771  162.4720 S.O2    1  UNL1        0.0457
     41 C         139.4021  146.4737  161.7180 C.3     1  UNL1        0.1960
     42 O         140.9120  145.2995  162.6354 O.2     1  UNL1       -0.1572
     43 O         137.9400  145.0548  162.3086 O.2     1  UNL1       -0.1572
@<TRIPOS>BOND
     1    10    11    1
     2    11     7    1
     3     7     8   am
     4     8     9    2
     5     8    12    1
     6    12    13    1
     7    13    14   ar
     8    14    15   ar
     9    15    16   ar
    10    16    19    1
    11    19    20    1
    12    19    21    2
    13    19    22    2
    14    16    17   ar
    15    17    18   ar
    16     7     1    1
    17     1     2    1
    18     2     3    1
    19     3     4    1
    20     4    23    1
    21    23    24    1
    22    25    24    1
    23    25    26    1
    24    26    27   ar
    25    27    28   ar
    26    28    29    1
    27    28    30   ar
    28    30    31   ar
    29    31    32    1
    30    31    33   ar
    31    25    34    1
    32    34    35    1
    33    35    36    1
    34    36    37    1
    35    37    40    1
    36    40    41    1
    37    40    42    2
    38    40    43    2
    39    37    38    1
    40    38    39    1
    41     4     5    1
    42     5     6    1
    43    18    13   ar
    44     6     1    1
    45    33    26   ar
    46    39    34    1
@<TRIPOS>MOLECULE
*****
 43 46 0 0 0
SMALL
GASTEIGER

@<TRIPOS>ATOM
      1 C         141.2424  139.8181  166.7802 C.3     1  UNL1        0.0781
      2 C         139.7716  140.1021  166.8584 C.3     1  UNL1        0.0372
      3 C         138.8711  139.7123  165.7238 C.3     1  UNL1        0.0738
      4 N         139.4414  139.0386  164.5111 N.3     1  UNL1       -0.2726
      5 C         140.9122  138.7546  164.4328 C.3     1  UNL1        0.0738
      6 C         141.8127  139.1444  165.5673 C.3     1  UNL1        0.0372
      7 N         142.1429  140.2079  167.9147 N.am    1  UNL1       -0.2808
      8 C         142.5953  141.6308  168.0583 C.2     1  UNL1        0.2300
      9 O         143.4958  142.0206  169.1929 O.2     1  UNL1       -0.2745
     10 C         141.9865  139.1400  170.2779 C.3     1  UNL1        0.0233
     11 C         142.5909  139.1748  168.9056 C.3     1  UNL1        0.0934
     12 C         142.1473  142.6639  167.0675 C.3     1  UNL1        0.1116
     13 C         142.6857  142.6437  165.6675 C.ar    1  UNL1       -0.0130
     14 C         141.8343  143.1233  164.5295 C.ar    1  UNL1       -0.0025
     15 C         142.3727  143.1030  163.1297 C.ar    1  UNL1        0.0180
     16 C         143.7625  142.6031  162.8678 C.ar    1  UNL1        0.1057
     17 C         144.6139  142.1235  164.0058 C.ar    1  UNL1        0.0180
     18 C         144.0755  142.1438  165.4056 C.ar    1  UNL1       -0.0025
     19 S         144.3009  142.5829  161.4678 S.O2    1  UNL1        0.0104
     20 C         144.8392  142.5627  160.0679 C.3     1  UNL1        0.1816
     21 O         143.4369  143.7583  161.1186 O.2     1  UNL1       -0.1686
     22 O         145.1648  141.4075  161.8170 O.2     1  UNL1       -0.1686
     23 C         138.5409  138.6489  163.3765 C.3     1  UNL1        0.0724
     24 C         137.9748  139.7031  162.4721 C.3     1  UNL1        0.0217
     25 C         138.8945  140.6173  161.7182 C.3     1  UNL1        0.0238
     26 C         138.9437  142.0777  162.0569 C.ar    1  UNL1       -0.0231
     27 C         139.5273  143.0550  161.0800 C.ar    1  UNL1       -0.0086
     28 C         139.5765  144.5155  161.4188 C.ar    1  UNL1       -0.0225
     29 C         140.1601  145.4928  160.4419 C.3     1  UNL1        0.0310
     30 C         139.0421  144.9986  162.7345 C.ar    1  UNL1       -0.0085
     31 C         138.4585  144.0213  163.7114 C.ar    1  UNL1       -0.0225
     32 C         137.9240  144.5045  165.0271 C.3     1  UNL1        0.0310
     33 C         138.4093  142.5609  163.3726 C.ar    1  UNL1       -0.0086
     34 C         139.7651  140.0712  160.6256 C.3     1  UNL1        0.0070
     35 C         141.2418  139.9253  160.8454 C.3     1  UNL1        0.0195
     36 C         142.1123  139.3791  159.7528 C.3     1  UNL1        0.0954
     37 N         141.5063  138.9788  158.4404 N.3     1  UNL1       -0.1594
     38 C         140.0297  139.1247  158.2206 C.3     1  UNL1        0.0954
     39 C         139.1591  139.6709  159.3132 C.3     1  UNL1        0.0195
     40 S         142.3768  138.4326  157.3478 S.O2    1  UNL1        0.0457
     41 C         143.2474  137.8865  156.2551 C.3     1  UNL1        0.1960
     42 O         143.0363  137.5135  158.3328 O.2     1  UNL1       -0.1572
     43 O         141.7173  139.3518  156.3629 O.2     1  UNL1       -0.1572
@<TRIPOS>BOND
     1    10    11    1
     2    11     7    1
     3     7     8   am
     4     8     9    2
     5     8    12    1
     6    12    13    1
     7    13    14   ar
     8    14    15   ar
     9    15    16   ar
    10    16    19    1
    11    19    20    1
    12    19    21    2
    13    19    22    2
    14    16    17   ar
    15    17    18   ar
    16     7     1    1
    17     1     2    1
    18     2     3    1
    19     3     4    1
    20     4    23    1
    21    23    24    1
    22    25    24    1
    23    25    26    1
    24    26    27   ar
    25    27    28   ar
    26    28    29    1
    27    28    30   ar
    28    30    31   ar
    29    31    32    1
    30    31    33   ar
    31    25    34    1
    32    34    35    1
    33    35    36    1
    34    36    37    1
    35    37    40    1
    36    40    41    1
    37    40    42    2
    38    40    43    2
    39    37    38    1
    40    38    39    1
    41     4     5    1
    42     5     6    1
    43    18    13   ar
    44     6     1    1
    45    33    26   ar
    46    39    34    1
@<TRIPOS>MOLECULE
*****
 43 46 0 0 0
SMALL
GASTEIGER

@<TRIPOS>ATOM
      1 C         139.8510  141.5877  166.5038 C.3     1  UNL1        0.0781
      2 C         139.0817  141.0109  165.3526 C.3     1  UNL1        0.0372
      3 C         138.5354  141.9150  164.2876 C.3     1  UNL1        0.0738
      4 N         138.7585  143.3958  164.3738 N.3     1  UNL1       -0.2726
      5 C         139.5279  143.9726  165.5251 C.3     1  UNL1        0.0738
      6 C         140.0741  143.0685  166.5901 C.3     1  UNL1        0.0372
      7 N         140.3973  140.6836  167.5688 N.am    1  UNL1       -0.2808
      8 C         141.8482  140.3030  167.5579 C.2     1  UNL1        0.2300
      9 O         142.3945  139.3989  168.6229 O.2     1  UNL1       -0.2745
     10 C         139.3009  140.9430  169.9098 C.3     1  UNL1        0.0233
     11 C         139.4928  140.1601  168.6448 C.3     1  UNL1        0.0934
     12 C         142.7528  140.8264  166.4819 C.3     1  UNL1        0.1116
     13 C         142.7540  140.1857  165.1256 C.ar    1  UNL1       -0.0130
     14 C         142.4713  141.0115  163.9057 C.ar    1  UNL1       -0.0025
     15 C         142.4725  140.3707  162.5495 C.ar    1  UNL1        0.0180
     16 C         142.7565  138.9041  162.4132 C.ar    1  UNL1        0.1057
     17 C         143.0392  138.0783  163.6330 C.ar    1  UNL1        0.0180
     18 C         143.0379  138.7191  164.9892 C.ar    1  UNL1       -0.0025
     19 S         142.7577  138.2634  161.0568 S.O2    1  UNL1        0.0104
     20 C         142.7588  137.6226  159.7006 C.3     1  UNL1        0.1816
     21 O         141.4724  137.5638  161.3862 O.2     1  UNL1       -0.1686
     22 O         144.0430  138.9629  160.7275 O.2     1  UNL1       -0.1686
     23 C         138.2122  144.2999  163.3088 C.3     1  UNL1        0.0724
     24 C         139.1429  144.9582  162.3340 C.3     1  UNL1        0.0217
     25 C         140.0665  144.1230  161.4977 C.3     1  UNL1        0.0238
     26 C         141.5245  144.0447  161.8409 C.ar    1  UNL1       -0.0231
     27 C         142.4768  143.3484  160.9145 C.ar    1  UNL1       -0.0086
     28 C         143.9350  143.2702  161.2578 C.ar    1  UNL1       -0.0225
     29 C         144.8873  142.5738  160.3314 C.3     1  UNL1        0.0310
     30 C         144.4407  143.8882  162.5275 C.ar    1  UNL1       -0.0085
     31 C         143.4885  144.5846  163.4539 C.ar    1  UNL1       -0.0225
     32 C         143.9943  145.2027  164.7237 C.3     1  UNL1        0.0310
     33 C         142.0304  144.6628  163.1107 C.ar    1  UNL1       -0.0086
     34 C         139.5320  143.3660  160.3181 C.3     1  UNL1        0.0070
     35 C         139.6612  143.9393  158.9380 C.3     1  UNL1        0.0195
     36 C         139.1267  143.1823  157.7584 C.3     1  UNL1        0.0954
     37 N         138.4631  141.8521  157.9590 N.3     1  UNL1       -0.1594
     38 C         138.3340  141.2789  159.3391 C.3     1  UNL1        0.0954
     39 C         138.8684  142.0358  160.5187 C.3     1  UNL1        0.0195
     40 S         137.9287  141.0952  156.7795 S.O2    1  UNL1        0.0457
     41 C         137.3942  140.3382  155.5998 C.3     1  UNL1        0.1960
     42 O         136.9834  140.3578  157.6809 O.2     1  UNL1       -0.1572
     43 O         138.8739  141.8325  155.8780 O.2     1  UNL1       -0.1572
@<TRIPOS>BOND
     1    10    11    1
     2    11     7    1
     3     7     8   am
     4     8     9    2
     5     8    12    1
     6    12    13    1
     7    13    14   ar
     8    14    15   ar
     9    15    16   ar
    10    16    19    1
    11    19    20    1
    12    19    21    2
    13    19    22    2
    14    16    17   ar
    15    17    18   ar
    16     7     1    1
    17     1     2    1
    18     2     3    1
    19     3     4    1
    20     4    23    1
    21    23    24    1
    22    25    24    1
    23    25    26    1
    24    26    27   ar
    25    27    28   ar
    26    28    29    1
    27    28    30   ar
    28    30    31   ar
    29    31    32    1
    30    31    33   ar
    31    25    34    1
    32    34    35    1
    33    35    36    1
    34    36    37    1
    35    37    40    1
    36    40    41    1
    37    40    42    2
    38    40    43    2
    39    37    38    1
    40    38    39    1
    41     4     5    1
    42     5     6    1
    43    18    13   ar
    44     6     1    1
    45    33    26   ar
    46    39    34    1
@<TRIPOS>MOLECULE
*****
 43 46 0 0 0
SMALL
GASTEIGER

@<TRIPOS>ATOM
      1 C         142.1150  138.5497  159.7016 C.3     1  UNL1        0.0781
      2 C         140.6196  138.6649  159.7243 C.3     1  UNL1        0.0372
      3 C         139.8549  138.2631  160.9506 C.3     1  UNL1        0.0738
      4 N         140.5856  137.7459  162.1542 N.3     1  UNL1       -0.2726
      5 C         142.0810  137.6307  162.1315 C.3     1  UNL1        0.0738
      6 C         142.8457  138.0325  160.9052 C.3     1  UNL1        0.0372
      7 N         142.8797  138.9516  158.4754 N.am    1  UNL1       -0.2808
      8 C         143.8551  140.0894  158.5391 C.2     1  UNL1        0.2300
      9 O         144.6198  140.4913  157.3128 O.2     1  UNL1       -0.2745
     10 C         141.7379  138.7709  156.1487 C.3     1  UNL1        0.0233
     11 C         142.6690  138.2157  157.1854 C.3     1  UNL1        0.0934
     12 C         144.0658  140.8253  159.8290 C.3     1  UNL1        0.1116
     13 C         143.1634  141.9653  160.1982 C.ar    1  UNL1       -0.0130
     14 C         142.8991  142.2754  161.6418 C.ar    1  UNL1       -0.0025
     15 C         141.9968  143.4154  162.0109 C.ar    1  UNL1        0.0180
     16 C         141.3588  144.2452  160.9365 C.ar    1  UNL1        0.1057
     17 C         141.6231  143.9350  159.4929 C.ar    1  UNL1        0.0180
     18 C         142.5254  142.7951  159.1238 C.ar    1  UNL1       -0.0025
     19 S         140.4564  145.3852  161.3057 S.O2    1  UNL1        0.0104
     20 C         139.5541  146.5251  161.6749 C.3     1  UNL1        0.1816
     21 O         140.9714  145.3368  162.7136 O.2     1  UNL1       -0.1686
     22 O         139.9414  145.4335  159.8977 O.2     1  UNL1       -0.1686
     23 C         139.8209  137.3441  163.3804 C.3     1  UNL1        0.0724
     24 C         138.7709  138.2562  163.9420 C.3     1  UNL1        0.0217
     25 C         139.1626  139.5821  164.5240 C.3     1  UNL1        0.0238
     26 C         138.7528  140.8522  163.8393 C.ar    1  UNL1       -0.0231
     27 C         138.7253  140.9215  162.3412 C.ar    1  UNL1       -0.0086
     28 C         138.3155  142.1917  161.6565 C.ar    1  UNL1       -0.0225
     29 C         138.2879  142.2609  160.1583 C.3     1  UNL1        0.0310
     30 C         137.9333  143.3925  162.4699 C.ar    1  UNL1       -0.0085
     31 C         137.9608  143.3233  163.9681 C.ar    1  UNL1       -0.0225
     32 C         137.5785  144.5243  164.7816 C.3     1  UNL1        0.0310
     33 C         138.3706  142.0532  164.6528 C.ar    1  UNL1       -0.0086
     34 C         139.9641  139.6378  165.7907 C.3     1  UNL1        0.0070
     35 C         141.4547  139.4765  165.7428 C.3     1  UNL1        0.0195
     36 C         142.2561  139.5322  167.0095 C.3     1  UNL1        0.0954
     37 N         141.5671  139.7493  168.3241 N.3     1  UNL1       -0.1594
     38 C         140.0766  139.9107  168.3720 C.3     1  UNL1        0.0954
     39 C         139.2750  139.8549  167.1053 C.3     1  UNL1        0.0195
     40 S         142.3685  139.8051  169.5907 S.O2    1  UNL1        0.0457
     41 C         143.1700  139.8608  170.8575 C.3     1  UNL1        0.1960
     42 O         143.0686  138.5362  169.2037 O.2     1  UNL1       -0.1572
     43 O         141.6685  141.0739  169.9778 O.2     1  UNL1       -0.1572
@<TRIPOS>BOND
     1    10    11    1
     2    11     7    1
     3     7     8   am
     4     8     9    2
     5     8    12    1
     6    12    13    1
     7    13    14   ar
     8    14    15   ar
     9    15    16   ar
    10    16    19    1
    11    19    20    1
    12    19    21    2
    13    19    22    2
    14    16    17   ar
    15    17    18   ar
    16     7     1    1
    17     1     2    1
    18     2     3    1
    19     3     4    1
    20     4    23    1
    21    23    24    1
    22    25    24    1
    23    25    26    1
    24    26    27   ar
    25    27    28   ar
    26    28    29    1
    27    28    30   ar
    28    30    31   ar
    29    31    32    1
    30    31    33   ar
    31    25    34    1
    32    34    35    1
    33    35    36    1
    34    36    37    1
    35    37    40    1
    36    40    41    1
    37    40    42    2
    38    40    43    2
    39    37    38    1
    40    38    39    1
    41     4     5    1
    42     5     6    1
    43    18    13   ar
    44     6     1    1
    45    33    26   ar
    46    39    34    1
@<TRIPOS>MOLECULE
*****
 43 46 0 0 0
SMALL
GASTEIGER

@<TRIPOS>ATOM
      1 C         141.6136  138.7521  159.9293 C.3     1  UNL1        0.0781
      2 C         142.4033  138.4965  161.1786 C.3     1  UNL1        0.0372
      3 C         141.7029  138.0699  162.4346 C.3     1  UNL1        0.0738
      4 N         140.2127  137.8989  162.4412 N.3     1  UNL1       -0.2726
      5 C         139.4229  138.1545  161.1918 C.3     1  UNL1        0.0738
      6 C         140.1233  138.5811  159.9358 C.3     1  UNL1        0.0372
      7 N         142.3140  139.1787  158.6733 N.am    1  UNL1       -0.2808
      8 C         142.3465  140.6281  158.2880 C.2     1  UNL1        0.2300
      9 O         143.0469  141.0547  157.0321 O.2     1  UNL1       -0.2745
     10 C         142.2390  137.5553  156.6464 C.3     1  UNL1        0.0233
     11 C         142.9819  138.1560  157.8027 C.3     1  UNL1        0.0934
     12 C         141.6786  141.6507  159.1587 C.3     1  UNL1        0.1116
     13 C         142.3207  142.0735  160.4467 C.ar    1  UNL1       -0.0130
     14 C         143.7520  142.5220  160.4595 C.ar    1  UNL1       -0.0025
     15 C         144.3940  142.9448  161.7475 C.ar    1  UNL1        0.0180
     16 C         143.6046  142.9191  163.0228 C.ar    1  UNL1        0.1057
     17 C         142.1733  142.4707  163.0100 C.ar    1  UNL1        0.0180
     18 C         141.5314  142.0479  161.7220 C.ar    1  UNL1       -0.0025
     19 S         144.2467  143.3419  164.3109 S.O2    1  UNL1        0.0104
     20 C         144.8887  143.7648  165.5989 C.3     1  UNL1        0.1816
     21 O         143.7719  144.7469  164.0863 O.2     1  UNL1       -0.1686
     22 O         144.7216  141.9370  164.5354 O.2     1  UNL1       -0.1686
     23 C         139.5123  137.4723  163.6972 C.3     1  UNL1        0.0724
     24 C         138.5925  138.4238  164.4032 C.3     1  UNL1        0.0217
     25 C         139.1219  139.7220  164.9365 C.3     1  UNL1        0.0238
     26 C         138.7939  141.0089  164.2392 C.ar    1  UNL1       -0.0231
     27 C         138.7422  142.2910  165.0161 C.ar    1  UNL1       -0.0086
     28 C         138.4142  143.5779  164.3186 C.ar    1  UNL1       -0.0225
     29 C         138.3625  144.8600  165.0955 C.3     1  UNL1        0.0310
     30 C         138.1378  143.5826  162.8444 C.ar    1  UNL1       -0.0085
     31 C         138.1895  142.3006  162.0674 C.ar    1  UNL1       -0.0225
     32 C         137.9131  142.3054  160.5931 C.3     1  UNL1        0.0310
     33 C         138.5175  141.0137  162.7648 C.ar    1  UNL1       -0.0086
     34 C         139.9792  139.7334  166.1673 C.3     1  UNL1        0.0070
     35 C         141.4671  139.5867  166.0462 C.3     1  UNL1        0.0195
     36 C         142.3245  139.5980  167.2770 C.3     1  UNL1        0.0954
     37 N         141.6940  139.7561  168.6288 N.3     1  UNL1       -0.1594
     38 C         140.2061  139.9028  168.7499 C.3     1  UNL1        0.0954
     39 C         139.3487  139.8914  167.5191 C.3     1  UNL1        0.0195
     40 S         142.5513  139.7674  169.8596 S.O2    1  UNL1        0.0457
     41 C         143.4087  139.7788  171.0904 C.3     1  UNL1        0.1960
     42 O         143.0510  138.3935  169.5241 O.2     1  UNL1       -0.1572
     43 O         142.0516  141.1413  170.1950 O.2     1  UNL1       -0.1572
@<TRIPOS>BOND
     1    10    11    1
     2    11     7    1
     3     7     8   am
     4     8     9    2
     5     8    12    1
     6    12    13    1
     7    13    14   ar
     8    14    15   ar
     9    15    16   ar
    10    16    19    1
    11    19    20    1
    12    19    21    2
    13    19    22    2
    14    16    17   ar
    15    17    18   ar
    16     7     1    1
    17     1     2    1
    18     2     3    1
    19     3     4    1
    20     4    23    1
    21    23    24    1
    22    25    24    1
    23    25    26    1
    24    26    27   ar
    25    27    28   ar
    26    28    29    1
    27    28    30   ar
    28    30    31   ar
    29    31    32    1
    30    31    33   ar
    31    25    34    1
    32    34    35    1
    33    35    36    1
    34    36    37    1
    35    37    40    1
    36    40    41    1
    37    40    42    2
    38    40    43    2
    39    37    38    1
    40    38    39    1
    41     4     5    1
    42     5     6    1
    43    18    13   ar
    44     6     1    1
    45    33    26   ar
    46    39    34    1
@<TRIPOS>MOLECULE
*****
 43 46 0 0 0
SMALL
GASTEIGER

@<TRIPOS>ATOM
      1 C         141.2910  139.4447  166.3962 C.3     1  UNL1        0.0781
      2 C         139.7974  139.5783  166.4339 C.3     1  UNL1        0.0372
      3 C         138.9619  138.9643  165.3500 C.3     1  UNL1        0.0738
      4 N         139.6199  138.2166  164.2284 N.3     1  UNL1       -0.2726
      5 C         141.1135  138.0830  164.1907 C.3     1  UNL1        0.0738
      6 C         141.9490  138.6970  165.2746 C.3     1  UNL1        0.0372
      7 N         142.1265  140.0588  167.4801 N.am    1  UNL1       -0.2808
      8 C         142.3844  141.5365  167.4821 C.2     1  UNL1        0.2300
      9 O         143.2199  142.1505  168.5660 O.2     1  UNL1       -0.2745
     10 C         142.0636  139.1625  169.9178 C.3     1  UNL1        0.0233
     11 C         142.7043  139.1952  168.5619 C.3     1  UNL1        0.0934
     12 C         141.8066  142.4001  166.4003 C.3     1  UNL1        0.1116
     13 C         142.4368  142.4192  165.0391 C.ar    1  UNL1       -0.0130
     14 C         141.7537  143.1264  163.9063 C.ar    1  UNL1       -0.0025
     15 C         142.3838  143.1455  162.5453 C.ar    1  UNL1        0.0180
     16 C         143.6970  142.4575  162.3170 C.ar    1  UNL1        0.1057
     17 C         144.3801  141.7503  163.4498 C.ar    1  UNL1        0.0180
     18 C         143.7500  141.7312  164.8108 C.ar    1  UNL1       -0.0025
     19 S         144.3271  142.4766  160.9558 S.O2    1  UNL1        0.0104
     20 C         144.9573  142.4958  159.5948 C.3     1  UNL1        0.1816
     21 O         145.6629  142.1795  161.5701 O.2     1  UNL1       -0.1686
     22 O         142.9913  142.7737  160.3416 O.2     1  UNL1       -0.1686
     23 C         138.7843  137.6026  163.1446 C.3     1  UNL1        0.0724
     24 C         138.1716  138.4716  162.0866 C.3     1  UNL1        0.0217
     25 C         139.0247  139.4453  161.3289 C.3     1  UNL1        0.0238
     26 C         138.9453  140.9109  161.6381 C.ar    1  UNL1       -0.0231
     27 C         138.3658  141.3719  162.9426 C.ar    1  UNL1       -0.0086
     28 C         138.2864  142.8376  163.2517 C.ar    1  UNL1       -0.0225
     29 C         137.7070  143.2987  164.5562 C.3     1  UNL1        0.0310
     30 C         138.7865  143.8422  162.2563 C.ar    1  UNL1       -0.0085
     31 C         139.3659  143.3812  160.9519 C.ar    1  UNL1       -0.0225
     32 C         139.8660  144.3859  159.9565 C.3     1  UNL1        0.0310
     33 C         139.4453  141.9156  160.6427 C.ar    1  UNL1       -0.0086
     34 C         139.9573  138.9533  160.2621 C.3     1  UNL1        0.0070
     35 C         139.4568  138.7538  158.8621 C.3     1  UNL1        0.0195
     36 C         140.3894  138.2618  157.7952 C.3     1  UNL1        0.0954
     37 N         141.8224  137.9694  158.1282 N.3     1  UNL1       -0.1594
     38 C         142.3229  138.1689  159.5281 C.3     1  UNL1        0.0954
     39 C         141.3903  138.6609  160.5950 C.3     1  UNL1        0.0195
     40 S         142.7549  137.4774  157.0613 S.O2    1  UNL1        0.0457
     41 C         143.6876  136.9855  155.9944 C.3     1  UNL1        0.1960
     42 O         141.8739  136.2835  156.8418 O.2     1  UNL1       -0.1572
     43 O         143.6359  138.6714  157.2809 O.2     1  UNL1       -0.1572
@<TRIPOS>BOND
     1    10    11    1
     2    11     7    1
     3     7     8   am
     4     8     9    2
     5     8    12    1
     6    12    13    1
     7    13    14   ar
     8    14    15   ar
     9    15    16   ar
    10    16    19    1
    11    19    20    1
    12    19    21    2
    13    19    22    2
    14    16    17   ar
    15    17    18   ar
    16     7     1    1
    17     1     2    1
    18     2     3    1
    19     3     4    1
    20     4    23    1
    21    23    24    1
    22    25    24    1
    23    25    26    1
    24    26    27   ar
    25    27    28   ar
    26    28    29    1
    27    28    30   ar
    28    30    31   ar
    29    31    32    1
    30    31    33   ar
    31    25    34    1
    32    34    35    1
    33    35    36    1
    34    36    37    1
    35    37    40    1
    36    40    41    1
    37    40    42    2
    38    40    43    2
    39    37    38    1
    40    38    39    1
    41     4     5    1
    42     5     6    1
    43    18    13   ar
    44     6     1    1
    45    33    26   ar
    46    39    34    1
