@<TRIPOS>MOLECULE
*****
 30 33 0 0 0
SMALL
GASTEIGER

@<TRIPOS>ATOM
      1 C         139.9359  139.1465  162.5293 C.ar    1  UNL1       -0.0003
      2 C         138.7488  139.3858  161.6442 C.ar    1  UNL1        0.0001
      3 C         138.8511  139.1364  160.1686 C.ar    1  UNL1        0.0042
      4 C         140.1405  138.6475  159.5782 C.ar    1  UNL1        0.0497
      5 C         141.3276  138.4082  160.4634 C.ar    1  UNL1       -0.0161
      6 C         141.2253  138.6577  161.9389 C.ar    1  UNL1       -0.0041
      7 C         142.6169  137.9194  159.8730 C.3     1  UNL1        0.0480
      8 C         142.7192  137.6699  158.3974 C.3     1  UNL1        0.0984
      9 N         141.5321  137.9093  157.5122 N.am    1  UNL1       -0.2743
     10 C         140.2427  138.3981  158.1026 C.2     1  UNL1        0.2488
     11 O         139.0557  138.6374  157.2175 O.2     1  UNL1       -0.2699
     12 C         139.6291  139.8949  166.9561 C.ar    1  UNL1        0.0534
     13 C         140.8991  140.2195  166.2268 C.ar    1  UNL1        0.0045
     14 C         141.0013  139.9700  164.7512 C.ar    1  UNL1        0.0001
     15 C         139.8336  139.3960  164.0049 C.ar    1  UNL1       -0.0000
     16 C         138.5637  139.0714  164.7342 C.ar    1  UNL1        0.0001
     17 C         138.4614  139.3209  166.2097 C.ar    1  UNL1        0.0045
     18 N         140.5563  140.9885  169.1227 N.am    1  UNL1       -0.3009
     19 C         139.5268  140.1444  168.4316 C.2     1  UNL1        0.2458
     20 O         138.3950  139.5497  169.2161 O.2     1  UNL1       -0.2701
     21 H         141.2991  141.3787  168.6078 H       1  UNL1        0.1497
     22 C         141.6372  141.7671  171.3532 C.3     1  UNL1        0.0230
     23 C         140.4540  141.2379  170.5983 C.3     1  UNL1        0.0898
     24 C         141.6344  137.6598  156.0367 C.3     1  UNL1        0.1110
     25 C         142.6608  136.7026  155.5072 C.3     1  UNL1        0.0939
     26 N         142.4655  135.2248  155.6754 N.3     1  UNL1       -0.2712
     27 C         141.3423  134.4131  155.1014 C.3     1  UNL1        0.0722
     28 C         141.5417  132.9860  155.5183 C.3     1  UNL1        0.0188
     29 C         142.7882  132.9159  156.3499 C.3     1  UNL1        0.0188
     30 C         143.3591  134.2996  156.4470 C.3     1  UNL1        0.0722
@<TRIPOS>BOND
     1    22    23    1
     2    23    18    1
     3    18    19   am
     4    19    20    2
     5    19    12    1
     6    12    13   ar
     7    13    14   ar
     8    14    15   ar
     9    15     1    1
    10     1     2   ar
    11     2     3   ar
    12     3     4   ar
    13     4     5   ar
    14     5     6   ar
    15     5     7    1
    16     7     8    1
    17     8     9    1
    18     9    24    1
    19    24    25    1
    20    25    26    1
    21    26    27    1
    22    27    28    1
    23    28    29    1
    24    29    30    1
    25     9    10   am
    26    10    11    2
    27    15    16   ar
    28    16    17   ar
    29    17    12   ar
    30     6     1   ar
    31    30    26    1
    32    10     4    1
    33    18    21    1
@<TRIPOS>MOLECULE
*****
 30 33 0 0 0
SMALL
GASTEIGER

@<TRIPOS>ATOM
      1 C         139.3876  140.1354  163.3825 C.ar    1  UNL1       -0.0003
      2 C         138.3192  140.1310  164.4353 C.ar    1  UNL1        0.0001
      3 C         138.6906  139.9722  165.8799 C.ar    1  UNL1        0.0042
      4 C         140.1302  139.8178  166.2716 C.ar    1  UNL1        0.0497
      5 C         141.1986  139.8221  165.2188 C.ar    1  UNL1       -0.0161
      6 C         140.8273  139.9809  163.7742 C.ar    1  UNL1       -0.0041
      7 C         142.6383  139.6677  165.6105 C.3     1  UNL1        0.0480
      8 C         143.0096  139.5089  167.0551 C.3     1  UNL1        0.0984
      9 N         141.9412  139.5045  168.1080 N.am    1  UNL1       -0.2743
     10 C         140.5015  139.6589  167.7163 C.2     1  UNL1        0.2488
     11 O         139.4332  139.6546  168.7692 O.2     1  UNL1       -0.2699
     12 C         138.2738  140.6119  159.0485 C.ar    1  UNL1        0.0534
     13 C         137.3438  139.9034  159.9884 C.ar    1  UNL1        0.0045
     14 C         137.7151  139.7446  161.4331 C.ar    1  UNL1        0.0001
     15 C         139.0163  140.2942  161.9378 C.ar    1  UNL1       -0.0000
     16 C         139.9463  141.0026  160.9980 C.ar    1  UNL1        0.0001
     17 C         139.5750  141.1615  159.5534 C.ar    1  UNL1        0.0045
     18 N         136.4702  140.6385  157.1788 N.am    1  UNL1       -0.3009
     19 C         137.9026  140.7707  157.6039 C.2     1  UNL1        0.2458
     20 O         138.9637  141.0618  156.5845 O.2     1  UNL1       -0.2701
     21 H         135.7738  140.4474  157.8479 H       1  UNL1        0.1497
     22 C         136.2156  139.6318  154.7972 C.3     1  UNL1        0.0230
     23 C         136.0989  140.7973  155.7341 C.3     1  UNL1        0.0898
     24 C         142.3125  139.3457  169.5526 C.3     1  UNL1        0.1110
     25 C         142.5540  140.5578  170.4026 C.3     1  UNL1        0.0939
     26 N         141.6043  141.7174  170.3423 N.3     1  UNL1       -0.2712
     27 C         141.6806  142.8705  169.3860 C.3     1  UNL1        0.0722
     28 C         140.5351  143.7933  169.6803 C.3     1  UNL1        0.0188
     29 C         139.7509  143.2103  170.8184 C.3     1  UNL1        0.0188
     30 C         140.4117  141.9274  171.2275 C.3     1  UNL1        0.0722
@<TRIPOS>BOND
     1    22    23    1
     2    23    18    1
     3    18    19   am
     4    19    20    2
     5    19    12    1
     6    12    13   ar
     7    13    14   ar
     8    14    15   ar
     9    15     1    1
    10     1     2   ar
    11     2     3   ar
    12     3     4   ar
    13     4     5   ar
    14     5     6   ar
    15     5     7    1
    16     7     8    1
    17     8     9    1
    18     9    24    1
    19    24    25    1
    20    25    26    1
    21    26    27    1
    22    27    28    1
    23    28    29    1
    24    29    30    1
    25     9    10   am
    26    10    11    2
    27    15    16   ar
    28    16    17   ar
    29    17    12   ar
    30     6     1   ar
    31    30    26    1
    32    10     4    1
    33    18    21    1
@<TRIPOS>MOLECULE
*****
 30 33 0 0 0
SMALL
GASTEIGER

@<TRIPOS>ATOM
      1 C         140.8322  142.7673  164.7580 C.ar    1  UNL1       -0.0003
      2 C         139.9919  144.0016  164.9004 C.ar    1  UNL1        0.0001
      3 C         139.7404  144.8790  163.7102 C.ar    1  UNL1        0.0042
      4 C         140.3292  144.5222  162.3775 C.ar    1  UNL1        0.0497
      5 C         141.1695  143.2879  162.2351 C.ar    1  UNL1       -0.0161
      6 C         141.4210  142.4104  163.4253 C.ar    1  UNL1       -0.0041
      7 C         141.7583  142.9311  160.9024 C.3     1  UNL1        0.0480
      8 C         141.5067  143.8086  159.7122 C.3     1  UNL1        0.0984
      9 N         140.6664  145.0430  159.8545 N.am    1  UNL1       -0.2743
     10 C         140.0776  145.3998  161.1872 C.2     1  UNL1        0.2488
     11 O         139.2373  146.6341  161.3296 O.2     1  UNL1       -0.2699
     12 C         141.5869  140.1346  168.3287 C.ar    1  UNL1        0.0534
     13 C         140.1864  140.5448  167.9820 C.ar    1  UNL1        0.0045
     14 C         139.9348  141.4224  166.7917 C.ar    1  UNL1        0.0001
     15 C         141.0838  141.8897  165.9482 C.ar    1  UNL1       -0.0000
     16 C         142.4843  141.4795  166.2950 C.ar    1  UNL1        0.0001
     17 C         142.7359  140.6020  167.4852 C.ar    1  UNL1        0.0045
     18 N         143.0505  138.3742  169.5569 N.am    1  UNL1       -0.3009
     19 C         141.8385  139.2571  169.5189 C.2     1  UNL1        0.2458
     20 O         140.8781  139.2625  170.6711 O.2     1  UNL1       -0.2701
     21 H         143.6809  138.3707  168.8007 H       1  UNL1        0.1497
     22 C         144.4061  136.4818  170.7107 C.3     1  UNL1        0.0230
     23 C         143.3022  137.4967  170.7472 C.3     1  UNL1        0.0898
     24 C         140.4149  145.9204  158.6643 C.3     1  UNL1        0.1110
     25 C         140.5168  145.3532  157.2794 C.3     1  UNL1        0.0939
     26 N         140.2729  146.2327  156.0889 N.3     1  UNL1       -0.2712
     27 C         140.9746  146.1407  154.7664 C.3     1  UNL1        0.0722
     28 C         140.4198  147.2097  153.8720 C.3     1  UNL1        0.0188
     29 C         139.3753  147.9622  154.6420 C.3     1  UNL1        0.0188
     30 C         139.2845  147.3584  156.0121 C.3     1  UNL1        0.0722
@<TRIPOS>BOND
     1    22    23    1
     2    23    18    1
     3    18    19   am
     4    19    20    2
     5    19    12    1
     6    12    13   ar
     7    13    14   ar
     8    14    15   ar
     9    15     1    1
    10     1     2   ar
    11     2     3   ar
    12     3     4   ar
    13     4     5   ar
    14     5     6   ar
    15     5     7    1
    16     7     8    1
    17     8     9    1
    18     9    24    1
    19    24    25    1
    20    25    26    1
    21    26    27    1
    22    27    28    1
    23    28    29    1
    24    29    30    1
    25     9    10   am
    26    10    11    2
    27    15    16   ar
    28    16    17   ar
    29    17    12   ar
    30     6     1   ar
    31    30    26    1
    32    10     4    1
    33    18    21    1
@<TRIPOS>MOLECULE
*****
 30 33 0 0 0
SMALL
GASTEIGER

@<TRIPOS>ATOM
      1 C         143.3756  139.9957  162.4764 C.ar    1  UNL1       -0.0003
      2 C         143.2257  138.7281  161.6887 C.ar    1  UNL1        0.0001
      3 C         143.4000  138.7459  160.1990 C.ar    1  UNL1        0.0042
      4 C         143.7243  140.0313  159.4971 C.ar    1  UNL1        0.0497
      5 C         143.8742  141.2989  160.2848 C.ar    1  UNL1       -0.0161
      6 C         143.6999  141.2811  161.7745 C.ar    1  UNL1       -0.0041
      7 C         144.1985  142.5842  159.5829 C.3     1  UNL1        0.0480
      8 C         144.3729  142.6020  158.0932 C.3     1  UNL1        0.0984
      9 N         144.2229  141.3344  157.3054 N.am    1  UNL1       -0.2743
     10 C         143.8986  140.0490  158.0073 C.2     1  UNL1        0.2488
     11 O         143.7487  138.7814  157.2195 O.2     1  UNL1       -0.2699
     12 C         142.8526  139.9426  166.9457 C.ar    1  UNL1        0.0534
     13 C         142.9695  138.6528  166.1889 C.ar    1  UNL1        0.0045
     14 C         143.1438  138.6706  164.6991 C.ar    1  UNL1        0.0001
     15 C         143.2013  139.9780  163.9662 C.ar    1  UNL1       -0.0000
     16 C         143.0844  141.2678  164.7230 C.ar    1  UNL1        0.0001
     17 C         142.9100  141.2501  166.2127 C.ar    1  UNL1        0.0045
     18 N         142.2347  141.1650  169.1533 N.am    1  UNL1       -0.3009
     19 C         142.6783  139.9250  168.4354 C.2     1  UNL1        0.2458
     20 O         142.9475  138.6672  169.2072 O.2     1  UNL1       -0.2701
     21 H         142.0581  141.9905  168.6468 H       1  UNL1        0.1497
     22 C         140.8624  141.8009  171.2658 C.3     1  UNL1        0.0230
     23 C         142.0604  141.1474  170.6431 C.3     1  UNL1        0.0898
     24 C         144.3973  141.3521  155.8157 C.3     1  UNL1        0.1110
     25 C         145.2351  142.4164  155.1712 C.3     1  UNL1        0.0939
     26 N         146.7052  142.1951  154.9713 N.3     1  UNL1       -0.2712
     27 C         147.7399  142.1144  156.0543 C.3     1  UNL1        0.0722
     28 C         149.0729  141.8850  155.4057 C.3     1  UNL1        0.0188
     29 C         148.8619  141.8239  153.9218 C.3     1  UNL1        0.0188
     30 C         147.3986  142.0155  153.6534 C.3     1  UNL1        0.0722
@<TRIPOS>BOND
     1    22    23    1
     2    23    18    1
     3    18    19   am
     4    19    20    2
     5    19    12    1
     6    12    13   ar
     7    13    14   ar
     8    14    15   ar
     9    15     1    1
    10     1     2   ar
    11     2     3   ar
    12     3     4   ar
    13     4     5   ar
    14     5     6   ar
    15     5     7    1
    16     7     8    1
    17     8     9    1
    18     9    24    1
    19    24    25    1
    20    25    26    1
    21    26    27    1
    22    27    28    1
    23    28    29    1
    24    29    30    1
    25     9    10   am
    26    10    11    2
    27    15    16   ar
    28    16    17   ar
    29    17    12   ar
    30     6     1   ar
    31    30    26    1
    32    10     4    1
    33    18    21    1
@<TRIPOS>MOLECULE
*****
 30 33 0 0 0
SMALL
GASTEIGER

@<TRIPOS>ATOM
      1 C         141.7098  144.0924  161.0248 C.ar    1  UNL1       -0.0003
      2 C         143.0173  143.4386  161.3609 C.ar    1  UNL1        0.0001
      3 C         143.2468  142.8835  162.7354 C.ar    1  UNL1        0.0042
      4 C         142.1687  142.9822  163.7737 C.ar    1  UNL1        0.0497
      5 C         140.8613  143.6360  163.4376 C.ar    1  UNL1       -0.0161
      6 C         140.6318  144.1911  162.0632 C.ar    1  UNL1       -0.0041
      7 C         139.7833  143.7347  164.4760 C.3     1  UNL1        0.0480
      8 C         140.0127  143.1796  165.8504 C.3     1  UNL1        0.0984
      9 N         141.3203  142.5257  166.1866 N.am    1  UNL1       -0.2743
     10 C         142.3983  142.4271  165.1482 C.2     1  UNL1        0.2488
     11 O         143.7057  141.7733  165.4843 O.2     1  UNL1       -0.2699
     12 C         141.0213  145.7578  156.9013 C.ar    1  UNL1        0.0534
     13 C         140.1014  146.1333  158.0251 C.ar    1  UNL1        0.0045
     14 C         140.3309  145.5782  159.3996 C.ar    1  UNL1        0.0001
     15 C         141.4803  144.6475  159.6503 C.ar    1  UNL1       -0.0000
     16 C         142.4001  144.2720  158.5266 C.ar    1  UNL1        0.0001
     17 C         142.1707  144.8271  157.1521 C.ar    1  UNL1        0.0045
     18 N         140.2588  147.7049  155.3596 N.am    1  UNL1       -0.3009
     19 C         140.7918  146.3129  155.5269 C.2     1  UNL1        0.2458
     20 O         141.0953  145.4759  154.3197 O.2     1  UNL1       -0.2701
     21 H         140.0596  148.2543  156.1520 H       1  UNL1        0.1497
     22 C         139.6000  149.6872  153.8147 C.3     1  UNL1        0.0230
     23 C         140.0293  148.2601  153.9851 C.3     1  UNL1        0.0898
     24 C         141.5497  141.9706  167.5610 C.3     1  UNL1        0.1110
     25 C         141.2785  140.5219  167.8397 C.3     1  UNL1        0.0939
     26 N         140.2782  139.7730  167.0099 N.3     1  UNL1       -0.2712
     27 C         140.5319  139.1582  165.6654 C.3     1  UNL1        0.0722
     28 C         139.2591  138.5126  165.2034 C.3     1  UNL1        0.0188
     29 C         138.2189  138.7285  166.2624 C.3     1  UNL1        0.0188
     30 C         138.8488  139.5074  167.3789 C.3     1  UNL1        0.0722
@<TRIPOS>BOND
     1    22    23    1
     2    23    18    1
     3    18    19   am
     4    19    20    2
     5    19    12    1
     6    12    13   ar
     7    13    14   ar
     8    14    15   ar
     9    15     1    1
    10     1     2   ar
    11     2     3   ar
    12     3     4   ar
    13     4     5   ar
    14     5     6   ar
    15     5     7    1
    16     7     8    1
    17     8     9    1
    18     9    24    1
    19    24    25    1
    20    25    26    1
    21    26    27    1
    22    27    28    1
    23    28    29    1
    24    29    30    1
    25     9    10   am
    26    10    11    2
    27    15    16   ar
    28    16    17   ar
    29    17    12   ar
    30     6     1   ar
    31    30    26    1
    32    10     4    1
    33    18    21    1
@<TRIPOS>MOLECULE
*****
 30 33 0 0 0
SMALL
GASTEIGER

@<TRIPOS>ATOM
      1 C         138.7542  140.7879  162.5113 C.ar    1  UNL1       -0.0003
      2 C         137.9752  139.7748  161.7259 C.ar    1  UNL1        0.0001
      3 C         137.7537  139.9744  160.2559 C.ar    1  UNL1        0.0042
      4 C         138.3112  141.1871  159.5712 C.ar    1  UNL1        0.0497
      5 C         139.0901  142.2002  160.3567 C.ar    1  UNL1       -0.0161
      6 C         139.3116  142.0005  161.8267 C.ar    1  UNL1       -0.0041
      7 C         139.6475  143.4128  159.6721 C.3     1  UNL1        0.0480
      8 C         139.4260  143.6125  158.2020 C.3     1  UNL1        0.0984
      9 N         138.6470  142.5994  157.4165 N.am    1  UNL1       -0.2743
     10 C         138.0896  141.3867  158.1011 C.2     1  UNL1        0.2488
     11 O         137.3107  140.3737  157.3157 O.2     1  UNL1       -0.2699
     12 C         139.4188  140.1891  166.9216 C.ar    1  UNL1        0.0534
     13 C         139.8359  141.4730  166.2678 C.ar    1  UNL1        0.0045
     14 C         139.6143  141.6726  164.7977 C.ar    1  UNL1        0.0001
     15 C         138.9757  140.5883  163.9814 C.ar    1  UNL1       -0.0000
     16 C         138.5586  139.3043  164.6352 C.ar    1  UNL1        0.0001
     17 C         138.7801  139.1047  166.1052 C.ar    1  UNL1        0.0045
     18 N         141.0227  140.0990  168.9634 N.am    1  UNL1       -0.3009
     19 C         139.6403  139.9894  168.3916 C.2     1  UNL1        0.2458
     20 O         138.4794  139.6803  169.2898 O.2     1  UNL1       -0.2701
     21 H         141.7846  140.3019  168.3738 H       1  UNL1        0.1497
     22 C         141.7388  141.0357  171.2785 C.3     1  UNL1        0.0230
     23 C         141.2442  139.8993  170.4335 C.3     1  UNL1        0.0898
     24 C         138.4255  142.7990  155.9465 C.3     1  UNL1        0.1110
     25 C         137.0692  143.1895  155.4386 C.3     1  UNL1        0.0939
     26 N         136.2210  142.1850  154.7164 N.3     1  UNL1       -0.2712
     27 C         134.8558  141.7226  155.1319 C.3     1  UNL1        0.0722
     28 C         134.3800  140.7183  154.1243 C.3     1  UNL1        0.0188
     29 C         135.4512  140.5601  153.0862 C.3     1  UNL1        0.0188
     30 C         136.5889  141.4665  153.4522 C.3     1  UNL1        0.0722
@<TRIPOS>BOND
     1    22    23    1
     2    23    18    1
     3    18    19   am
     4    19    20    2
     5    19    12    1
     6    12    13   ar
     7    13    14   ar
     8    14    15   ar
     9    15     1    1
    10     1     2   ar
    11     2     3   ar
    12     3     4   ar
    13     4     5   ar
    14     5     6   ar
    15     5     7    1
    16     7     8    1
    17     8     9    1
    18     9    24    1
    19    24    25    1
    20    25    26    1
    21    26    27    1
    22    27    28    1
    23    28    29    1
    24    29    30    1
    25     9    10   am
    26    10    11    2
    27    15    16   ar
    28    16    17   ar
    29    17    12   ar
    30     6     1   ar
    31    30    26    1
    32    10     4    1
    33    18    21    1
@<TRIPOS>MOLECULE
*****
 30 33 0 0 0
SMALL
GASTEIGER

@<TRIPOS>ATOM
      1 C         141.5738  139.1170  162.1383 C.ar    1  UNL1       -0.0003
      2 C         140.2550  138.5447  161.7105 C.ar    1  UNL1        0.0001
      3 C         139.9730  138.3173  160.2549 C.ar    1  UNL1        0.0042
      4 C         141.0097  138.6622  159.2272 C.ar    1  UNL1        0.0497
      5 C         142.3286  139.2345  159.6551 C.ar    1  UNL1       -0.0161
      6 C         142.6106  139.4619  161.1106 C.ar    1  UNL1       -0.0041
      7 C         143.3654  139.5793  158.6274 C.3     1  UNL1        0.0480
      8 C         143.0833  139.3519  157.1718 C.3     1  UNL1        0.0984
      9 N         141.7644  138.7796  156.7439 N.am    1  UNL1       -0.2743
     10 C         140.7276  138.4347  157.7716 C.2     1  UNL1        0.2488
     11 O         139.4088  137.8625  157.3437 O.2     1  UNL1       -0.2699
     12 C         142.4201  139.7993  166.5051 C.ar    1  UNL1        0.0534
     13 C         142.8720  138.5316  165.8427 C.ar    1  UNL1        0.0045
     14 C         142.5899  138.3042  164.3871 C.ar    1  UNL1        0.0001
     15 C         141.8559  139.3444  163.5939 C.ar    1  UNL1       -0.0000
     16 C         141.4041  140.6121  164.2563 C.ar    1  UNL1        0.0001
     17 C         141.6861  140.8396  165.7119 C.ar    1  UNL1        0.0045
     18 N         142.6859  141.4188  168.5191 N.am    1  UNL1       -0.3009
     19 C         142.7022  140.0268  167.9607 C.2     1  UNL1        0.2458
     20 O         143.0006  138.8622  168.8577 O.2     1  UNL1       -0.2701
     21 H         142.4900  142.1831  167.9303 H       1  UNL1        0.1497
     22 C         142.9606  143.0392  170.5313 C.3     1  UNL1        0.0230
     23 C         142.9680  141.6463  169.9747 C.3     1  UNL1        0.0898
     24 C         141.4824  138.5522  155.2883 C.3     1  UNL1        0.1110
     25 C         142.2364  137.4974  154.5341 C.3     1  UNL1        0.0939
     26 N         142.5635  136.1915  155.1958 N.3     1  UNL1       -0.2712
     27 C         143.8910  135.8066  155.7785 C.3     1  UNL1        0.0722
     28 C         143.7685  134.4185  156.3338 C.3     1  UNL1        0.0188
     29 C         142.3652  133.9457  156.0943 C.3     1  UNL1        0.0188
     30 C         141.6205  135.0415  155.3910 C.3     1  UNL1        0.0722
@<TRIPOS>BOND
     1    22    23    1
     2    23    18    1
     3    18    19   am
     4    19    20    2
     5    19    12    1
     6    12    13   ar
     7    13    14   ar
     8    14    15   ar
     9    15     1    1
    10     1     2   ar
    11     2     3   ar
    12     3     4   ar
    13     4     5   ar
    14     5     6   ar
    15     5     7    1
    16     7     8    1
    17     8     9    1
    18     9    24    1
    19    24    25    1
    20    25    26    1
    21    26    27    1
    22    27    28    1
    23    28    29    1
    24    29    30    1
    25     9    10   am
    26    10    11    2
    27    15    16   ar
    28    16    17   ar
    29    17    12   ar
    30     6     1   ar
    31    30    26    1
    32    10     4    1
    33    18    21    1
@<TRIPOS>MOLECULE
*****
 30 33 0 0 0
SMALL
GASTEIGER

@<TRIPOS>ATOM
      1 C         139.0763  139.4533  165.7648 C.ar    1  UNL1       -0.0003
      2 C         138.8506  140.7437  165.0341 C.ar    1  UNL1        0.0001
      3 C         139.4609  140.9557  163.6804 C.ar    1  UNL1        0.0042
      4 C         140.2969  139.8773  163.0574 C.ar    1  UNL1        0.0497
      5 C         140.5227  138.5869  163.7881 C.ar    1  UNL1       -0.0161
      6 C         139.9124  138.3749  165.1418 C.ar    1  UNL1       -0.0041
      7 C         141.3587  137.5086  163.1651 C.3     1  UNL1        0.0480
      8 C         141.9690  137.7205  161.8114 C.3     1  UNL1        0.0984
      9 N         141.7433  139.0110  161.0806 N.am    1  UNL1       -0.2743
     10 C         140.9073  140.0893  161.7036 C.2     1  UNL1        0.2488
     11 O         140.6815  141.3797  160.9730 O.2     1  UNL1       -0.2699
     12 C         137.2453  138.8171  169.8260 C.ar    1  UNL1        0.0534
     13 C         138.3665  139.7987  169.6542 C.ar    1  UNL1        0.0045
     14 C         138.9768  140.0107  168.3004 C.ar    1  UNL1        0.0001
     15 C         138.4660  139.2412  167.1186 C.ar    1  UNL1       -0.0000
     16 C         137.3448  138.2597  167.2903 C.ar    1  UNL1        0.0001
     17 C         136.7344  138.0476  168.6440 C.ar    1  UNL1        0.0045
     18 N         136.9211  137.3455  171.9423 N.am    1  UNL1       -0.3009
     19 C         136.6350  138.6050  171.1797 C.2     1  UNL1        0.2458
     20 O         135.7385  139.6525  171.7707 O.2     1  UNL1       -0.2701
     21 H         137.5094  136.6581  171.5544 H       1  UNL1        0.1497
     22 C         134.8520  136.8063  173.4182 C.3     1  UNL1        0.0230
     23 C         136.3107  137.1334  173.2961 C.3     1  UNL1        0.0898
     24 C         142.3536  139.2230  159.7270 C.3     1  UNL1        0.1110
     25 C         141.4881  139.2001  158.5021 C.3     1  UNL1        0.0939
     26 N         141.5475  138.0315  157.5635 N.3     1  UNL1       -0.2712
     27 C         142.7280  137.1309  157.3505 C.3     1  UNL1        0.0722
     28 C         142.3469  136.1011  156.3284 C.3     1  UNL1        0.0188
     29 C         140.9309  136.3654  155.9099 C.3     1  UNL1        0.0188
     30 C         140.4369  137.5584  156.6732 C.3     1  UNL1        0.0722
@<TRIPOS>BOND
     1    22    23    1
     2    23    18    1
     3    18    19   am
     4    19    20    2
     5    19    12    1
     6    12    13   ar
     7    13    14   ar
     8    14    15   ar
     9    15     1    1
    10     1     2   ar
    11     2     3   ar
    12     3     4   ar
    13     4     5   ar
    14     5     6   ar
    15     5     7    1
    16     7     8    1
    17     8     9    1
    18     9    24    1
    19    24    25    1
    20    25    26    1
    21    26    27    1
    22    27    28    1
    23    28    29    1
    24    29    30    1
    25     9    10   am
    26    10    11    2
    27    15    16   ar
    28    16    17   ar
    29    17    12   ar
    30     6     1   ar
    31    30    26    1
    32    10     4    1
    33    18    21    1
@<TRIPOS>MOLECULE
*****
 30 33 0 0 0
SMALL
GASTEIGER

@<TRIPOS>ATOM
      1 C         140.5682  139.5570  158.7820 C.ar    1  UNL1       -0.0003
      2 C         140.8516  140.9554  158.3191 C.ar    1  UNL1        0.0001
      3 C         140.3449  142.1245  159.1106 C.ar    1  UNL1        0.0042
      4 C         139.5548  141.8952  160.3649 C.ar    1  UNL1        0.0497
      5 C         139.2715  140.4969  160.8278 C.ar    1  UNL1       -0.0161
      6 C         139.7781  139.3278  160.0363 C.ar    1  UNL1       -0.0041
      7 C         138.4814  140.2677  162.0821 C.3     1  UNL1        0.0480
      8 C         137.9747  141.4368  162.8735 C.3     1  UNL1        0.0984
      9 N         138.2581  142.8352  162.4107 N.am    1  UNL1       -0.2743
     10 C         139.0482  143.0644  161.1564 C.2     1  UNL1        0.2488
     11 O         139.3316  144.4628  160.6935 O.2     1  UNL1       -0.2699
     12 C         142.0881  136.0495  156.4076 C.ar    1  UNL1        0.0534
     13 C         142.9253  136.6288  157.5092 C.ar    1  UNL1        0.0045
     14 C         142.4186  137.7980  158.3007 C.ar    1  UNL1        0.0001
     15 C         141.0748  138.3878  157.9905 C.ar    1  UNL1       -0.0000
     16 C         140.2376  137.8085  156.8890 C.ar    1  UNL1        0.0001
     17 C         140.7442  136.6394  156.0975 C.ar    1  UNL1        0.0045
     18 N         143.1921  133.6993  156.3220 N.am    1  UNL1       -0.3009
     19 C         142.5947  134.8803  155.6162 C.2     1  UNL1        0.2458
     20 O         142.5038  134.8923  154.1190 O.2     1  UNL1       -0.2701
     21 H         143.2517  133.6915  157.3046 H       1  UNL1        0.1497
     22 C         144.7886  131.6630  156.0876 C.3     1  UNL1        0.0230
     23 C         143.6987  132.5300  155.5305 C.3     1  UNL1        0.0898
     24 C         137.7515  144.0043  163.2021 C.3     1  UNL1        0.1110
     25 C         138.6305  144.6507  164.2314 C.3     1  UNL1        0.0939
     26 N         140.0935  144.3232  164.2806 N.3     1  UNL1       -0.2712
     27 C         140.7148  143.1706  165.0125 C.3     1  UNL1        0.0722
     28 C         142.1974  143.2258  164.7908 C.3     1  UNL1        0.0188
     29 C         142.4923  144.4126  163.9220 C.3     1  UNL1        0.0188
     30 C         141.1920  145.0907  163.6067 C.3     1  UNL1        0.0722
@<TRIPOS>BOND
     1    22    23    1
     2    23    18    1
     3    18    19   am
     4    19    20    2
     5    19    12    1
     6    12    13   ar
     7    13    14   ar
     8    14    15   ar
     9    15     1    1
    10     1     2   ar
    11     2     3   ar
    12     3     4   ar
    13     4     5   ar
    14     5     6   ar
    15     5     7    1
    16     7     8    1
    17     8     9    1
    18     9    24    1
    19    24    25    1
    20    25    26    1
    21    26    27    1
    22    27    28    1
    23    28    29    1
    24    29    30    1
    25     9    10   am
    26    10    11    2
    27    15    16   ar
    28    16    17   ar
    29    17    12   ar
    30     6     1   ar
    31    30    26    1
    32    10     4    1
    33    18    21    1
