@<TRIPOS>MOLECULE
*****
 36 41 0 0 0
SMALL
GASTEIGER

@<TRIPOS>ATOM
      1 N         143.1745  142.9202  164.5408 N.3     1  UNL1       -0.2703
      2 C         143.8062  142.5746  163.2250 C.3     1  UNL1        0.0736
      3 C         143.4205  143.3283  161.9868 C.3     1  UNL1        0.0331
      4 C         142.4030  144.4277  162.0645 C.3     1  UNL1        0.0570
      5 C         141.7712  144.7734  163.3804 C.3     1  UNL1        0.0331
      6 C         142.1570  144.0197  164.6185 C.3     1  UNL1        0.0736
      7 N         142.0172  145.1815  160.8263 N.3     1  UNL1       -0.2934
      8 H         142.8271  145.1638  160.2065 H       1  UNL1        0.1236
      9 C         140.8393  144.7342  160.0124 C.3     1  UNL1        0.1152
     10 C         139.9902  143.5923  160.4867 C.ar    1  UNL1        0.0782
     11 C         140.3466  142.1852  160.1089 C.ar    1  UNL1        0.0562
     12 C         139.4975  141.0433  160.5832 C.ar    1  UNL1        0.1752
     13 C         138.2919  141.3085  161.4353 C.ar    1  UNL1        0.1914
     14 C         137.9354  142.7157  161.8131 C.ar    1  UNL1        0.1384
     15 N         138.7845  143.8576  161.3388 N.ar    1  UNL1       -0.2434
     16 O         137.4426  140.1665  161.9096 O.3     1  UNL1       -0.4668
     17 C         137.7992  138.7594  161.5318 C.3     1  UNL1        0.2527
     18 C         139.0048  138.4941  160.6797 C.3     1  UNL1        0.2526
     19 O         139.8540  139.6360  160.2054 O.3     1  UNL1       -0.4683
     20 C         143.5603  142.1665  165.7789 C.3     1  UNL1        0.1056
     21 O         139.7967  138.7339  164.3746 O.2     1  UNL1       -0.2653
     22 C         139.7204  139.2754  165.7713 C.ar    1  UNL1        0.2803
     23 C         138.6157  138.8370  166.6864 C.ar    1  UNL1        0.1594
     24 N         138.5394  139.3786  168.0831 N.ar    1  UNL1       -0.2374
     25 C         139.5678  140.3585  168.5648 C.ar    1  UNL1        0.0972
     26 C         139.4915  140.9000  169.9616 C.ar    1  UNL1        0.0229
     27 C         140.5198  141.8800  170.4433 C.ar    1  UNL1        0.0310
     28 C         141.6246  142.3184  169.5282 C.ar    1  UNL1        0.1399
     29 F         142.6530  143.2984  170.0099 F       1  UNL1       -0.2044
     30 C         141.7009  141.7769  168.1314 C.ar    1  UNL1        0.0497
     31 C         140.6725  140.7969  167.6498 C.ar    1  UNL1        0.0806
     32 N         140.7488  140.2554  166.2530 N.ar    1  UNL1       -0.2902
     33 C         141.9694  140.9438  165.7178 C.3     1  UNL1        0.1415
     34 C         142.5191  141.8223  166.8024 C.3     1  UNL1        0.1458
     35 O         143.2864  142.7727  167.6729 O.3     1  UNL1       -0.3793
     36 H         144.0410  143.1277  167.1774 H       1  UNL1        0.2108
@<TRIPOS>BOND
     1    21    22    2
     2    22    23   ar
     3    23    24   ar
     4    24    25   ar
     5    25    26   ar
     6    26    27   ar
     7    27    28   ar
     8    28    29    1
     9    28    30   ar
    10    30    31   ar
    11    31    32   ar
    12    32    33    1
    13    33    34    1
    14    34    35    1
    15    34    20    1
    16    20     1    1
    17     1     2    1
    18     2     3    1
    19     3     4    1
    20     4     7    1
    21     7     9    1
    22     9    10    1
    23    10    11   ar
    24    11    12   ar
    25    12    13   ar
    26    13    14   ar
    27    14    15   ar
    28    13    16    1
    29    16    17    1
    30    17    18    1
    31    18    19    1
    32     4     5    1
    33     5     6    1
    34    32    22   ar
    35     6     1    1
    36    31    25   ar
    37    15    10   ar
    38    34    30    1
    39    19    12    1
    40    35    36    1
    41     7     8    1
@<TRIPOS>MOLECULE
*****
 36 41 0 0 0
SMALL
GASTEIGER

@<TRIPOS>ATOM
      1 N         138.5445  139.3618  164.6832 N.3     1  UNL1       -0.2703
      2 C         137.8686  140.6978  164.5932 C.3     1  UNL1        0.0736
      3 C         137.5356  141.2809  163.2519 C.3     1  UNL1        0.0331
      4 C         137.8785  140.5280  162.0007 C.3     1  UNL1        0.0570
      5 C         138.5545  139.1920  162.0907 C.3     1  UNL1        0.0331
      6 C         138.8875  138.6089  163.4320 C.3     1  UNL1        0.0736
      7 N         137.5455  141.1111  160.6593 N.3     1  UNL1       -0.2934
      8 H         136.6567  141.6006  160.7635 H       1  UNL1        0.1236
      9 C         138.4934  142.0700  160.0021 C.3     1  UNL1        0.1152
     10 C         139.4162  142.9050  160.8396 C.ar    1  UNL1        0.0782
     11 C         140.8753  142.5654  160.9137 C.ar    1  UNL1        0.0562
     12 C         141.7981  143.4003  161.7512 C.ar    1  UNL1        0.1752
     13 C         141.2617  144.5748  162.5145 C.ar    1  UNL1        0.1914
     14 C         139.8026  144.9144  162.4404 C.ar    1  UNL1        0.1384
     15 N         138.8798  144.0795  161.6029 N.ar    1  UNL1       -0.2434
     16 O         142.1846  145.4098  163.3521 O.3     1  UNL1       -0.4668
     17 C         143.6437  145.0701  163.4261 C.3     1  UNL1        0.2527
     18 C         144.1801  143.8955  162.6628 C.3     1  UNL1        0.2526
     19 O         143.2573  143.0606  161.8253 O.3     1  UNL1       -0.4683
     20 C         138.8776  138.7787  166.0245 C.3     1  UNL1        0.1056
     21 O         143.3737  141.2916  164.8458 O.2     1  UNL1       -0.2653
     22 C         142.8251  141.5136  166.2242 C.ar    1  UNL1        0.2803
     23 C         143.5491  142.4104  167.1841 C.ar    1  UNL1        0.1594
     24 N         143.0005  142.6324  168.5624 N.ar    1  UNL1       -0.2374
     25 C         141.7280  141.9575  168.9809 C.ar    1  UNL1        0.0972
     26 C         141.1795  142.1794  170.3592 C.ar    1  UNL1        0.0229
     27 C         139.9069  141.5046  170.7776 C.ar    1  UNL1        0.0310
     28 C         139.1829  140.6076  169.8177 C.ar    1  UNL1        0.1399
     29 F         137.9104  139.9327  170.2361 F       1  UNL1       -0.2044
     30 C         139.7314  140.3857  168.4394 C.ar    1  UNL1        0.0497
     31 C         141.0041  141.0606  168.0210 C.ar    1  UNL1        0.0806
     32 N         141.5526  140.8387  166.6426 N.ar    1  UNL1       -0.2902
     33 C         140.5391  139.9048  166.0502 C.3     1  UNL1        0.1415
     34 C         139.4877  139.6433  167.0876 C.3     1  UNL1        0.1458
     35 O         138.3087  139.2010  167.9027 O.3     1  UNL1       -0.3793
     36 H         137.7561  138.6040  167.3745 H       1  UNL1        0.2108
@<TRIPOS>BOND
     1    21    22    2
     2    22    23   ar
     3    23    24   ar
     4    24    25   ar
     5    25    26   ar
     6    26    27   ar
     7    27    28   ar
     8    28    29    1
     9    28    30   ar
    10    30    31   ar
    11    31    32   ar
    12    32    33    1
    13    33    34    1
    14    34    35    1
    15    34    20    1
    16    20     1    1
    17     1     2    1
    18     2     3    1
    19     3     4    1
    20     4     7    1
    21     7     9    1
    22     9    10    1
    23    10    11   ar
    24    11    12   ar
    25    12    13   ar
    26    13    14   ar
    27    14    15   ar
    28    13    16    1
    29    16    17    1
    30    17    18    1
    31    18    19    1
    32     4     5    1
    33     5     6    1
    34    32    22   ar
    35     6     1    1
    36    31    25   ar
    37    15    10   ar
    38    34    30    1
    39    19    12    1
    40    35    36    1
    41     7     8    1
@<TRIPOS>MOLECULE
*****
 36 41 0 0 0
SMALL
GASTEIGER

@<TRIPOS>ATOM
      1 N         143.1448  142.8602  164.4859 N.3     1  UNL1       -0.2703
      2 C         142.0941  143.9303  164.4579 C.3     1  UNL1        0.0736
      3 C         141.7750  144.6346  163.1725 C.3     1  UNL1        0.0331
      4 C         142.5066  144.2687  161.9152 C.3     1  UNL1        0.0570
      5 C         143.5573  143.1985  161.9432 C.3     1  UNL1        0.0331
      6 C         143.8764  142.4943  163.2286 C.3     1  UNL1        0.0736
      7 N         142.1875  144.9730  160.6297 N.3     1  UNL1       -0.2934
      8 H         142.9915  144.8436  160.0156 H       1  UNL1        0.1236
      9 C         140.9730  144.5812  159.8414 C.3     1  UNL1        0.1152
     10 C         140.0945  143.4647  160.3227 C.ar    1  UNL1        0.0782
     11 C         140.4739  142.0399  160.0475 C.ar    1  UNL1        0.0562
     12 C         139.5954  140.9234  160.5288 C.ar    1  UNL1        0.1752
     13 C         138.3374  141.2318  161.2852 C.ar    1  UNL1        0.1914
     14 C         137.9579  142.6566  161.5604 C.ar    1  UNL1        0.1384
     15 N         138.8364  143.7731  161.0791 N.ar    1  UNL1       -0.2434
     16 O         137.4588  140.1152  161.7665 O.3     1  UNL1       -0.4668
     17 C         137.8384  138.6904  161.4914 C.3     1  UNL1        0.2527
     18 C         139.0965  138.3820  160.7349 C.3     1  UNL1        0.2526
     19 O         139.9750  139.4985  160.2537 O.3     1  UNL1       -0.4683
     20 C         143.4639  142.1559  165.7713 C.3     1  UNL1        0.1056
     21 O         143.3143  143.6874  170.8261 O.2     1  UNL1       -0.2653
     22 C         142.2343  142.7468  170.3802 C.ar    1  UNL1        0.2803
     23 C         141.1875  142.2914  171.3531 C.ar    1  UNL1        0.1594
     24 N         140.1074  141.3509  170.9071 N.ar    1  UNL1       -0.2374
     25 C         140.0743  140.8656  169.4882 C.ar    1  UNL1        0.0972
     26 C         138.9943  139.9251  169.0422 C.ar    1  UNL1        0.0229
     27 C         138.9612  139.4398  167.6233 C.ar    1  UNL1        0.0310
     28 C         140.0081  139.8952  166.6502 C.ar    1  UNL1        0.1399
     29 F         139.9750  139.4099  165.2313 F       1  UNL1       -0.2044
     30 C         141.0881  140.8358  167.0962 C.ar    1  UNL1        0.0497
     31 C         141.1212  141.3210  168.5152 C.ar    1  UNL1        0.0806
     32 N         142.2012  142.2616  168.9612 N.ar    1  UNL1       -0.2902
     33 C         142.9983  142.4403  167.7031 C.3     1  UNL1        0.1415
     34 C         142.3556  141.6170  166.6263 C.3     1  UNL1        0.1458
     35 O         141.9447  140.9065  165.3708 O.3     1  UNL1       -0.3793
     36 H         142.5619  141.1293  164.6565 H       1  UNL1        0.2108
@<TRIPOS>BOND
     1    21    22    2
     2    22    23   ar
     3    23    24   ar
     4    24    25   ar
     5    25    26   ar
     6    26    27   ar
     7    27    28   ar
     8    28    29    1
     9    28    30   ar
    10    30    31   ar
    11    31    32   ar
    12    32    33    1
    13    33    34    1
    14    34    35    1
    15    34    20    1
    16    20     1    1
    17     1     2    1
    18     2     3    1
    19     3     4    1
    20     4     7    1
    21     7     9    1
    22     9    10    1
    23    10    11   ar
    24    11    12   ar
    25    12    13   ar
    26    13    14   ar
    27    14    15   ar
    28    13    16    1
    29    16    17    1
    30    17    18    1
    31    18    19    1
    32     4     5    1
    33     5     6    1
    34    32    22   ar
    35     6     1    1
    36    31    25   ar
    37    15    10   ar
    38    34    30    1
    39    19    12    1
    40    35    36    1
    41     7     8    1
@<TRIPOS>MOLECULE
*****
 36 41 0 0 0
SMALL
GASTEIGER

@<TRIPOS>ATOM
      1 N         143.9174  140.1636  159.8657 N.3     1  UNL1       -0.2703
      2 C         144.1768  141.4962  160.5035 C.3     1  UNL1        0.0736
      3 C         144.0387  142.7533  159.6970 C.3     1  UNL1        0.0331
      4 C         143.6412  142.6778  158.2526 C.3     1  UNL1        0.0570
      5 C         143.3818  141.3452  157.6147 C.3     1  UNL1        0.0331
      6 C         143.5199  140.0881  158.4213 C.3     1  UNL1        0.0736
      7 N         143.5031  143.9350  157.4460 N.3     1  UNL1       -0.2934
      8 H         143.5263  143.6591  156.4643 H       1  UNL1        0.1236
      9 C         142.2975  144.8101  157.6215 C.3     1  UNL1        0.1152
     10 C         141.2083  144.4048  158.5699 C.ar    1  UNL1        0.0782
     11 C         141.1423  145.0121  159.9398 C.ar    1  UNL1        0.0562
     12 C         140.0532  144.6069  160.8882 C.ar    1  UNL1        0.1752
     13 C         139.0301  143.5943  160.4667 C.ar    1  UNL1        0.1914
     14 C         139.0960  142.9869  159.0968 C.ar    1  UNL1        0.1384
     15 N         140.1851  143.3922  158.1484 N.ar    1  UNL1       -0.2434
     16 O         137.9408  143.1890  161.4152 O.3     1  UNL1       -0.4668
     17 C         137.8748  143.7964  162.7851 C.3     1  UNL1        0.2527
     18 C         138.8980  144.8090  163.2066 C.3     1  UNL1        0.2526
     19 O         139.9872  145.2143  162.2582 O.3     1  UNL1       -0.4683
     20 C         144.0555  138.9064  160.6722 C.3     1  UNL1        0.1056
     21 O         138.8938  137.8437  161.0547 O.2     1  UNL1       -0.2653
     22 C         139.6332  138.0412  162.3448 C.ar    1  UNL1        0.2803
     23 C         138.9042  137.9334  163.6512 C.ar    1  UNL1        0.1594
     24 N         139.6436  138.1309  164.9412 N.ar    1  UNL1       -0.2374
     25 C         141.1121  138.4364  164.9249 C.ar    1  UNL1        0.0972
     26 C         141.8515  138.6340  166.2149 C.ar    1  UNL1        0.0229
     27 C         143.3199  138.9394  166.1985 C.ar    1  UNL1        0.0310
     28 C         144.0490  139.0473  164.8920 C.ar    1  UNL1        0.1399
     29 F         145.5175  139.3528  164.8756 F       1  UNL1       -0.2044
     30 C         143.3096  138.8498  163.6020 C.ar    1  UNL1        0.0497
     31 C         141.8411  138.5443  163.6184 C.ar    1  UNL1        0.0806
     32 N         141.1017  138.3467  162.3284 N.ar    1  UNL1       -0.2902
     33 C         142.1890  138.5391  161.3130 C.3     1  UNL1        0.1415
     34 C         143.4638  138.8295  162.0484 C.3     1  UNL1        0.1458
     35 O         144.8622  139.1360  162.4960 O.3     1  UNL1       -0.3793
     36 H         145.4368  139.2296  161.7202 H       1  UNL1        0.2108
@<TRIPOS>BOND
     1    21    22    2
     2    22    23   ar
     3    23    24   ar
     4    24    25   ar
     5    25    26   ar
     6    26    27   ar
     7    27    28   ar
     8    28    29    1
     9    28    30   ar
    10    30    31   ar
    11    31    32   ar
    12    32    33    1
    13    33    34    1
    14    34    35    1
    15    34    20    1
    16    20     1    1
    17     1     2    1
    18     2     3    1
    19     3     4    1
    20     4     7    1
    21     7     9    1
    22     9    10    1
    23    10    11   ar
    24    11    12   ar
    25    12    13   ar
    26    13    14   ar
    27    14    15   ar
    28    13    16    1
    29    16    17    1
    30    17    18    1
    31    18    19    1
    32     4     5    1
    33     5     6    1
    34    32    22   ar
    35     6     1    1
    36    31    25   ar
    37    15    10   ar
    38    34    30    1
    39    19    12    1
    40    35    36    1
    41     7     8    1
@<TRIPOS>MOLECULE
*****
 36 41 0 0 0
SMALL
GASTEIGER

@<TRIPOS>ATOM
      1 N         137.7323  140.9651  161.7365 N.3     1  UNL1       -0.2703
      2 C         137.5381  140.8066  163.2154 C.3     1  UNL1        0.0736
      3 C         137.7070  141.9874  164.1248 C.3     1  UNL1        0.0331
      4 C         138.0702  143.3268  163.5553 C.3     1  UNL1        0.0570
      5 C         138.2645  143.4853  162.0764 C.3     1  UNL1        0.0331
      6 C         138.0955  142.3044  161.1670 C.3     1  UNL1        0.0736
      7 N         138.2392  144.5077  164.4648 N.3     1  UNL1       -0.2934
      8 H         137.4916  144.4558  165.1567 H       1  UNL1        0.1236
      9 C         139.5197  144.6926  165.2239 C.3     1  UNL1        0.1152
     10 C         140.8258  144.3029  164.5975 C.ar    1  UNL1        0.0782
     11 C         141.5463  143.0744  165.0681 C.ar    1  UNL1        0.0562
     12 C         142.8524  142.6848  164.4418 C.ar    1  UNL1        0.1752
     13 C         143.4379  143.5237  163.3449 C.ar    1  UNL1        0.1914
     14 C         142.7174  144.7522  162.8743 C.ar    1  UNL1        0.1384
     15 N         141.4113  145.1419  163.5006 N.ar    1  UNL1       -0.2434
     16 O         144.7441  143.1341  162.7185 O.3     1  UNL1       -0.4668
     17 C         145.4646  141.9055  163.1892 C.3     1  UNL1        0.2527
     18 C         144.8791  141.0666  164.2861 C.3     1  UNL1        0.2526
     19 O         143.5730  141.4562  164.9124 O.3     1  UNL1       -0.4683
     20 C         137.5634  139.7843  160.8271 C.3     1  UNL1        0.1056
     21 O         142.0619  137.6915  162.6446 O.2     1  UNL1       -0.2653
     22 C         141.9716  137.8977  161.1616 C.ar    1  UNL1        0.2803
     23 C         143.1229  137.5150  160.2797 C.ar    1  UNL1        0.1594
     24 N         143.0326  137.7212  158.7966 N.ar    1  UNL1       -0.2374
     25 C         141.7909  138.3102  158.1956 C.ar    1  UNL1        0.0972
     26 C         141.7006  138.5164  156.7125 C.ar    1  UNL1        0.0229
     27 C         140.4589  139.1053  156.1115 C.ar    1  UNL1        0.0310
     28 C         139.3075  139.4881  156.9934 C.ar    1  UNL1        0.1399
     29 F         138.0658  140.0770  156.3923 F       1  UNL1       -0.2044
     30 C         139.3978  139.2819  158.4764 C.ar    1  UNL1        0.0497
     31 C         140.6396  138.6929  159.0775 C.ar    1  UNL1        0.0806
     32 N         140.7299  138.4867  160.5605 N.ar    1  UNL1       -0.2902
     33 C         139.3971  138.9926  161.0275 C.3     1  UNL1        0.1415
     34 C         138.6281  139.4516  159.8242 C.3     1  UNL1        0.1458
     35 O         137.6364  139.9803  158.8306 O.3     1  UNL1       -0.3793
     36 H         136.8335  140.2643  159.2949 H       1  UNL1        0.2108
@<TRIPOS>BOND
     1    21    22    2
     2    22    23   ar
     3    23    24   ar
     4    24    25   ar
     5    25    26   ar
     6    26    27   ar
     7    27    28   ar
     8    28    29    1
     9    28    30   ar
    10    30    31   ar
    11    31    32   ar
    12    32    33    1
    13    33    34    1
    14    34    35    1
    15    34    20    1
    16    20     1    1
    17     1     2    1
    18     2     3    1
    19     3     4    1
    20     4     7    1
    21     7     9    1
    22     9    10    1
    23    10    11   ar
    24    11    12   ar
    25    12    13   ar
    26    13    14   ar
    27    14    15   ar
    28    13    16    1
    29    16    17    1
    30    17    18    1
    31    18    19    1
    32     4     5    1
    33     5     6    1
    34    32    22   ar
    35     6     1    1
    36    31    25   ar
    37    15    10   ar
    38    34    30    1
    39    19    12    1
    40    35    36    1
    41     7     8    1
@<TRIPOS>MOLECULE
*****
 36 41 0 0 0
SMALL
GASTEIGER

@<TRIPOS>ATOM
      1 N         142.6637  142.6324  164.2883 N.3     1  UNL1       -0.2703
      2 C         143.3625  142.5538  162.9634 C.3     1  UNL1        0.0736
      3 C         142.9946  143.5054  161.8638 C.3     1  UNL1        0.0331
      4 C         141.9278  144.5356  162.0892 C.3     1  UNL1        0.0570
      5 C         141.2290  144.6142  163.4141 C.3     1  UNL1        0.0331
      6 C         141.5969  143.6626  164.5137 C.3     1  UNL1        0.0736
      7 N         141.5599  145.4873  160.9896 N.3     1  UNL1       -0.2934
      8 H         142.3772  145.5684  160.3847 H       1  UNL1        0.1236
      9 C         140.3902  145.1885  160.0993 C.3     1  UNL1        0.1152
     10 C         140.0043  143.7662  159.8199 C.ar    1  UNL1        0.0782
     11 C         140.8430  142.9282  158.9012 C.ar    1  UNL1        0.0562
     12 C         140.4571  141.5059  158.6218 C.ar    1  UNL1        0.1752
     13 C         139.2326  140.9216  159.2612 C.ar    1  UNL1        0.1914
     14 C         138.3938  141.7596  160.1800 C.ar    1  UNL1        0.1384
     15 N         138.7797  143.1819  160.4594 N.ar    1  UNL1       -0.2434
     16 O         138.8466  139.4991  158.9818 O.3     1  UNL1       -0.4668
     17 C         139.6854  138.6611  158.0630 C.3     1  UNL1        0.2527
     18 C         140.9100  139.2454  157.4236 C.3     1  UNL1        0.2526
     19 O         141.2959  140.6678  157.7030 O.3     1  UNL1       -0.4683
     20 C         143.0316  141.6808  165.3878 C.3     1  UNL1        0.1056
     21 O         139.0878  138.3411  164.2866 O.2     1  UNL1       -0.2653
     22 C         139.1179  138.9055  165.6761 C.ar    1  UNL1        0.2803
     23 C         138.0627  138.5138  166.6677 C.ar    1  UNL1        0.1594
     24 N         138.0928  139.0781  168.0571 N.ar    1  UNL1       -0.2374
     25 C         139.1780  140.0341  168.4551 C.ar    1  UNL1        0.0972
     26 C         139.2080  140.5984  169.8445 C.ar    1  UNL1        0.0229
     27 C         140.2932  141.5544  170.2425 C.ar    1  UNL1        0.0310
     28 C         141.3485  141.9461  169.2509 C.ar    1  UNL1        0.1399
     29 F         142.4337  142.9021  169.6488 F       1  UNL1       -0.2044
     30 C         141.3184  141.3818  167.8614 C.ar    1  UNL1        0.0497
     31 C         140.2331  140.4258  167.4635 C.ar    1  UNL1        0.0806
     32 N         140.2031  139.8614  166.0740 N.ar    1  UNL1       -0.2902
     33 C         141.4056  140.5052  165.4498 C.3     1  UNL1        0.1415
     34 C         142.0495  141.3830  166.4818 C.3     1  UNL1        0.1458
     35 O         142.8988  142.3230  167.2851 O.3     1  UNL1       -0.3793
     36 H         143.6295  142.6479  166.7361 H       1  UNL1        0.2108
@<TRIPOS>BOND
     1    21    22    2
     2    22    23   ar
     3    23    24   ar
     4    24    25   ar
     5    25    26   ar
     6    26    27   ar
     7    27    28   ar
     8    28    29    1
     9    28    30   ar
    10    30    31   ar
    11    31    32   ar
    12    32    33    1
    13    33    34    1
    14    34    35    1
    15    34    20    1
    16    20     1    1
    17     1     2    1
    18     2     3    1
    19     3     4    1
    20     4     7    1
    21     7     9    1
    22     9    10    1
    23    10    11   ar
    24    11    12   ar
    25    12    13   ar
    26    13    14   ar
    27    14    15   ar
    28    13    16    1
    29    16    17    1
    30    17    18    1
    31    18    19    1
    32     4     5    1
    33     5     6    1
    34    32    22   ar
    35     6     1    1
    36    31    25   ar
    37    15    10   ar
    38    34    30    1
    39    19    12    1
    40    35    36    1
    41     7     8    1
@<TRIPOS>MOLECULE
*****
 36 41 0 0 0
SMALL
GASTEIGER

@<TRIPOS>ATOM
      1 N         138.6877  139.0083  163.9393 N.3     1  UNL1       -0.2703
      2 C         138.0677  140.3326  163.6049 C.3     1  UNL1        0.0736
      3 C         137.6338  140.6239  162.1989 C.3     1  UNL1        0.0331
      4 C         137.8200  139.5909  161.1273 C.3     1  UNL1        0.0570
      5 C         138.4401  138.2666  161.4617 C.3     1  UNL1        0.0331
      6 C         138.8739  137.9753  162.8677 C.3     1  UNL1        0.0736
      7 N         137.3862  139.8823  159.7212 N.3     1  UNL1       -0.2934
      8 H         136.4069  140.1637  159.7676 H       1  UNL1        0.1236
      9 C         138.0998  140.9287  158.9177 C.3     1  UNL1        0.1152
     10 C         139.1789  141.7551  159.5523 C.ar    1  UNL1        0.0782
     11 C         140.5268  141.1529  159.8173 C.ar    1  UNL1        0.0562
     12 C         141.6058  141.9794  160.4519 C.ar    1  UNL1        0.1752
     13 C         141.3369  143.4079  160.8214 C.ar    1  UNL1        0.1914
     14 C         139.9889  144.0102  160.5565 C.ar    1  UNL1        0.1384
     15 N         138.9099  143.1838  159.9219 N.ar    1  UNL1       -0.2434
     16 O         142.4159  144.2345  161.4561 O.3     1  UNL1       -0.4668
     17 C         143.7639  143.6323  161.7211 C.3     1  UNL1        0.2527
     18 C         144.0329  142.2036  161.3515 C.3     1  UNL1        0.2526
     19 O         142.9539  141.3772  160.7169 O.3     1  UNL1       -0.4683
     20 C         139.1216  138.7170  165.3453 C.3     1  UNL1        0.1056
     21 O         138.0567  139.9440  170.3732 O.2     1  UNL1       -0.2653
     22 C         139.2858  140.5655  169.7792 C.ar    1  UNL1        0.2803
     23 C         140.1381  141.4813  170.6068 C.ar    1  UNL1        0.1594
     24 N         141.3672  142.1028  170.0127 N.ar    1  UNL1       -0.2374
     25 C         141.7441  141.8086  168.5910 C.ar    1  UNL1        0.0972
     26 C         142.9733  142.4301  167.9969 C.ar    1  UNL1        0.0229
     27 C         143.3502  142.1358  166.5752 C.ar    1  UNL1        0.0310
     28 C         142.4980  141.2200  165.7475 C.ar    1  UNL1        0.1399
     29 F         142.8749  140.9257  164.3258 F       1  UNL1       -0.2044
     30 C         141.2688  140.5984  166.3416 C.ar    1  UNL1        0.0497
     31 C         140.8919  140.8928  167.7634 C.ar    1  UNL1        0.0806
     32 N         139.6628  140.2713  168.3575 N.ar    1  UNL1       -0.2902
     33 C         139.1388  139.4586  167.2106 C.3     1  UNL1        0.1415
     34 C         140.0661  139.6475  166.0468 C.3     1  UNL1        0.1458
     35 O         140.7959  139.6419  164.7363 O.3     1  UNL1       -0.3793
     36 H         140.3274  139.0706  164.1078 H       1  UNL1        0.2108
@<TRIPOS>BOND
     1    21    22    2
     2    22    23   ar
     3    23    24   ar
     4    24    25   ar
     5    25    26   ar
     6    26    27   ar
     7    27    28   ar
     8    28    29    1
     9    28    30   ar
    10    30    31   ar
    11    31    32   ar
    12    32    33    1
    13    33    34    1
    14    34    35    1
    15    34    20    1
    16    20     1    1
    17     1     2    1
    18     2     3    1
    19     3     4    1
    20     4     7    1
    21     7     9    1
    22     9    10    1
    23    10    11   ar
    24    11    12   ar
    25    12    13   ar
    26    13    14   ar
    27    14    15   ar
    28    13    16    1
    29    16    17    1
    30    17    18    1
    31    18    19    1
    32     4     5    1
    33     5     6    1
    34    32    22   ar
    35     6     1    1
    36    31    25   ar
    37    15    10   ar
    38    34    30    1
    39    19    12    1
    40    35    36    1
    41     7     8    1
@<TRIPOS>MOLECULE
*****
 36 41 0 0 0
SMALL
GASTEIGER

@<TRIPOS>ATOM
      1 N         139.5266  144.1411  162.7912 N.3     1  UNL1       -0.2703
      2 C         138.6207  143.1980  162.0563 C.3     1  UNL1        0.0736
      3 C         137.9935  142.0437  162.7802 C.3     1  UNL1        0.0331
      4 C         138.2720  141.8324  164.2389 C.3     1  UNL1        0.0570
      5 C         139.1779  142.7755  164.9737 C.3     1  UNL1        0.0331
      6 C         139.8052  143.9299  164.2499 C.3     1  UNL1        0.0736
      7 N         137.6447  140.6780  164.9627 N.3     1  UNL1       -0.2934
      8 H         136.8854  140.3380  164.3726 H       1  UNL1        0.1236
      9 C         138.4743  139.4840  165.3317 C.3     1  UNL1        0.1152
     10 C         139.8140  139.2745  164.6904 C.ar    1  UNL1        0.0782
     11 C         139.9070  138.6177  163.3451 C.ar    1  UNL1        0.0562
     12 C         141.2467  138.4082  162.7038 C.ar    1  UNL1        0.1752
     13 C         142.4934  138.8554  163.4078 C.ar    1  UNL1        0.1914
     14 C         142.4004  139.5122  164.7532 C.ar    1  UNL1        0.1384
     15 N         141.0607  139.7217  165.3945 N.ar    1  UNL1       -0.2434
     16 O         143.8332  138.6459  162.7665 O.3     1  UNL1       -0.4668
     17 C         143.9262  137.9891  161.4212 C.3     1  UNL1        0.2527
     18 C         142.6795  137.5419  160.7171 C.3     1  UNL1        0.2526
     19 O         141.3398  137.7514  161.3584 O.3     1  UNL1       -0.4683
     20 C         140.1539  145.2955  162.0673 C.3     1  UNL1        0.1056
     21 O         144.2084  141.9404  161.5941 O.2     1  UNL1       -0.2653
     22 C         143.7429  142.6086  160.3345 C.ar    1  UNL1        0.2803
     23 C         144.4229  142.3095  159.0314 C.ar    1  UNL1        0.1594
     24 N         143.9573  142.9777  157.7717 N.ar    1  UNL1       -0.2374
     25 C         142.8118  143.9450  157.8151 C.ar    1  UNL1        0.0972
     26 C         142.3463  144.6132  156.5554 C.ar    1  UNL1        0.0229
     27 C         141.2008  145.5806  156.5988 C.ar    1  UNL1        0.0310
     28 C         140.5207  145.8798  157.9019 C.ar    1  UNL1        0.1399
     29 F         139.3751  146.8471  157.9453 F       1  UNL1       -0.2044
     30 C         140.9862  145.2116  159.1616 C.ar    1  UNL1        0.0497
     31 C         142.1318  144.2442  159.1182 C.ar    1  UNL1        0.0806
     32 N         142.5973  143.5760  160.3779 N.ar    1  UNL1       -0.2902
     33 C         141.6631  144.1523  161.4002 C.3     1  UNL1        0.1415
     34 C         140.7329  145.0967  160.6980 C.3     1  UNL1        0.1458
     35 O         139.6817  146.0825  160.2820 O.3     1  UNL1       -0.3793
     36 H         139.1675  146.3537  161.0585 H       1  UNL1        0.2108
@<TRIPOS>BOND
     1    21    22    2
     2    22    23   ar
     3    23    24   ar
     4    24    25   ar
     5    25    26   ar
     6    26    27   ar
     7    27    28   ar
     8    28    29    1
     9    28    30   ar
    10    30    31   ar
    11    31    32   ar
    12    32    33    1
    13    33    34    1
    14    34    35    1
    15    34    20    1
    16    20     1    1
    17     1     2    1
    18     2     3    1
    19     3     4    1
    20     4     7    1
    21     7     9    1
    22     9    10    1
    23    10    11   ar
    24    11    12   ar
    25    12    13   ar
    26    13    14   ar
    27    14    15   ar
    28    13    16    1
    29    16    17    1
    30    17    18    1
    31    18    19    1
    32     4     5    1
    33     5     6    1
    34    32    22   ar
    35     6     1    1
    36    31    25   ar
    37    15    10   ar
    38    34    30    1
    39    19    12    1
    40    35    36    1
    41     7     8    1
@<TRIPOS>MOLECULE
*****
 36 41 0 0 0
SMALL
GASTEIGER

@<TRIPOS>ATOM
      1 N         138.6546  139.0044  163.8860 N.3     1  UNL1       -0.2703
      2 C         138.8676  137.9679  162.8228 C.3     1  UNL1        0.0736
      3 C         138.4859  138.2613  161.4022 C.3     1  UNL1        0.0331
      4 C         137.8911  139.5911  161.0448 C.3     1  UNL1        0.0570
      5 C         137.6781  140.6276  162.1079 C.3     1  UNL1        0.0331
      6 C         138.0598  140.3342  163.5285 C.3     1  UNL1        0.0736
      7 N         137.5093  139.8845  159.6240 N.3     1  UNL1       -0.2934
      8 H         136.8073  140.6239  159.6545 H       1  UNL1        0.1236
      9 C         138.5551  140.3205  158.6411 C.3     1  UNL1        0.1152
     10 C         139.2122  139.3105  157.7478 C.ar    1  UNL1        0.0782
     11 C         140.5106  138.6802  158.1561 C.ar    1  UNL1        0.0562
     12 C         141.1677  137.6702  157.2627 C.ar    1  UNL1        0.1752
     13 C         140.5264  137.2906  155.9610 C.ar    1  UNL1        0.1914
     14 C         139.2280  137.9209  155.5526 C.ar    1  UNL1        0.1384
     15 N         138.5709  138.9309  156.4460 N.ar    1  UNL1       -0.2434
     16 O         141.1835  136.2805  155.0675 O.3     1  UNL1       -0.4668
     17 C         142.4819  135.6502  155.4759 C.3     1  UNL1        0.2527
     18 C         143.1233  136.0299  156.7777 C.3     1  UNL1        0.2526
     19 O         142.4662  137.0399  157.6710 O.3     1  UNL1       -0.4683
     20 C         139.0364  138.7110  165.3066 C.3     1  UNL1        0.1056
     21 O         137.9499  139.8758  170.3447 O.2     1  UNL1       -0.2653
     22 C         139.1926  140.4884  169.7697 C.ar    1  UNL1        0.2803
     23 C         140.0515  141.3787  170.6179 C.ar    1  UNL1        0.1594
     24 N         141.2941  141.9913  170.0430 N.ar    1  UNL1       -0.2374
     25 C         141.6779  141.7135  168.6198 C.ar    1  UNL1        0.0972
     26 C         142.9205  142.3261  168.0448 C.ar    1  UNL1        0.0229
     27 C         143.3043  142.0483  166.6216 C.ar    1  UNL1        0.0310
     28 C         142.4454  141.1579  165.7733 C.ar    1  UNL1        0.1399
     29 F         142.8292  140.8801  164.3501 F       1  UNL1       -0.2044
     30 C         141.2028  140.5453  166.3483 C.ar    1  UNL1        0.0497
     31 C         140.8190  140.8231  167.7716 C.ar    1  UNL1        0.0806
     32 N         139.5764  140.2106  168.3465 N.ar    1  UNL1       -0.2902
     33 C         139.0497  139.4234  167.1832 C.3     1  UNL1        0.1415
     34 C         139.9887  139.6167  166.0296 C.3     1  UNL1        0.1458
     35 O         140.7286  139.6206  164.7248 O.3     1  UNL1       -0.3793
     36 H         140.2569  139.0660  164.0839 H       1  UNL1        0.2108
@<TRIPOS>BOND
     1    21    22    2
     2    22    23   ar
     3    23    24   ar
     4    24    25   ar
     5    25    26   ar
     6    26    27   ar
     7    27    28   ar
     8    28    29    1
     9    28    30   ar
    10    30    31   ar
    11    31    32   ar
    12    32    33    1
    13    33    34    1
    14    34    35    1
    15    34    20    1
    16    20     1    1
    17     1     2    1
    18     2     3    1
    19     3     4    1
    20     4     7    1
    21     7     9    1
    22     9    10    1
    23    10    11   ar
    24    11    12   ar
    25    12    13   ar
    26    13    14   ar
    27    14    15   ar
    28    13    16    1
    29    16    17    1
    30    17    18    1
    31    18    19    1
    32     4     5    1
    33     5     6    1
    34    32    22   ar
    35     6     1    1
    36    31    25   ar
    37    15    10   ar
    38    34    30    1
    39    19    12    1
    40    35    36    1
    41     7     8    1
