@<TRIPOS>MOLECULE
*****
 37 41 0 0 0
SMALL
GASTEIGER

@<TRIPOS>ATOM
      1 C         139.2405  144.3482  162.9336 C.ar    1  UNL1        0.0899
      2 C         138.4713  144.3020  164.2205 C.ar    1  UNL1        0.1063
      3 N         137.9800  142.9889  164.7538 N.ar    1  UNL1       -0.2291
      4 C         138.2580  141.7220  164.0002 C.ar    1  UNL1        0.1301
      5 C         139.0272  141.7683  162.7133 C.ar    1  UNL1        0.0503
      6 C         139.5185  143.0814  162.1800 C.ar    1  UNL1        0.0895
      7 N         140.2453  142.8169  160.8948 N.2     1  UNL1       -0.2490
      8 C         140.2032  141.3404  160.6338 C.2     1  UNL1        0.0634
      9 C         140.7532  140.5023  159.5180 C.3     1  UNL1        0.0721
     10 C         140.5503  139.0162  159.5260 C.2     1  UNL1       -0.0147
     11 C         139.7975  138.3681  160.6500 C.2     1  UNL1       -0.0038
     12 C         139.2475  139.2061  161.7658 C.2     1  UNL1        0.0010
     13 C         139.4504  140.6923  161.7577 C.2     1  UNL1        0.0180
     14 C         141.1003  138.1780  158.4102 C.ar    1  UNL1        0.0157
     15 C         140.1990  137.7195  157.3022 C.ar    1  UNL1        0.0041
     16 C         140.7489  136.8814  156.1864 C.ar    1  UNL1        0.0339
     17 C         142.2001  136.5017  156.1784 C.ar    1  UNL1        0.1254
     18 N         142.7500  135.6636  155.0626 N.pl3   1  UNL1       -0.3426
     19 N         143.1013  136.9603  157.2863 N.ar    1  UNL1       -0.2296
     20 C         142.5514  137.7984  158.4022 C.ar    1  UNL1        0.0999
     21 H         142.1584  135.3627  154.3354 H       1  UNL1        0.1437
     22 H         143.7024  135.4145  155.0574 H       1  UNL1        0.1437
     23 N         140.9934  146.2658  162.9413 N.am    1  UNL1       -0.3252
     24 C         139.7317  145.6613  162.4003 C.2     1  UNL1        0.2457
     25 O         138.9613  146.3700  161.3259 O.2     1  UNL1       -0.2703
     26 H         141.3158  147.1276  162.5912 H       1  UNL1        0.1453
     27 H         141.4990  145.8007  163.6464 H       1  UNL1        0.1453
     28 N         137.7667  140.4089  164.5336 N.pl3   1  UNL1       -0.3127
     29 H         136.9228  140.0269  164.2002 H       1  UNL1        0.1484
     30 C         138.5612  139.6779  165.5750 C.3     1  UNL1        0.1663
     31 C         138.2070  138.2654  165.9341 C.3     1  UNL1        0.4135
     32 F         137.8529  136.8527  166.2932 F       1  UNL1       -0.1682
     33 F         139.1048  137.7628  164.8425 F       1  UNL1       -0.1682
     34 F         137.3092  138.7679  167.0256 F       1  UNL1       -0.1682
     35 C         139.7099  140.3598  166.2573 C.3     1  UNL1        0.0264
     36 C         141.1652  140.7204  166.3026 C.3     1  UNL1        0.0020
     37 C         140.2443  141.1800  167.3938 C.3     1  UNL1        0.0020
@<TRIPOS>BOND
     1    23    24   am
     2    24    25    2
     3    24     1    1
     4     1     2   ar
     5     2     3   ar
     6     3     4   ar
     7     4    28    1
     8    30    28    1
     9    30    35    1
    10    35    36    1
    11    36    37    1
    12    30    31    1
    13    31    32    1
    14    31    33    1
    15    31    34    1
    16     4     5   ar
    17     5     6   ar
    18     6     7    1
    19     7     8    2
    20     8     9    1
    21     9    10    1
    22    10    14    1
    23    14    15   ar
    24    15    16   ar
    25    16    17   ar
    26    17    18    1
    27    17    19   ar
    28    19    20   ar
    29    10    11    2
    30    11    12    1
    31    12    13    2
    32     6     1   ar
    33    13     8    1
    34    37    35    1
    35    13     5    1
    36    20    14   ar
    37    23    26    1
    38    23    27    1
    39    28    29    1
    40    18    21    1
    41    18    22    1
@<TRIPOS>MOLECULE
*****
 37 41 0 0 0
SMALL
GASTEIGER

@<TRIPOS>ATOM
      1 C         139.8807  144.0499  159.4697 C.ar    1  UNL1        0.0899
      2 C         139.0787  143.1991  158.5301 C.ar    1  UNL1        0.1063
      3 N         138.4380  141.9358  159.0235 N.ar    1  UNL1       -0.2291
      4 C         138.5993  141.5232  160.4566 C.ar    1  UNL1        0.1301
      5 C         139.4013  142.3739  161.3963 C.ar    1  UNL1        0.0503
      6 C         140.0420  143.6373  160.9028 C.ar    1  UNL1        0.0895
      7 N         140.7690  144.2682  162.0532 N.2     1  UNL1       -0.2490
      8 C         140.5775  143.3948  163.2577 C.2     1  UNL1        0.0634
      9 C         141.0637  143.5144  164.6716 C.3     1  UNL1        0.0721
     10 C         140.7046  142.4632  165.6795 C.2     1  UNL1       -0.0147
     11 C         139.8593  141.2924  165.2735 C.2     1  UNL1       -0.0038
     12 C         139.3732  141.1729  163.8595 C.2     1  UNL1        0.0010
     13 C         139.7323  142.2241  162.8516 C.2     1  UNL1        0.0180
     14 C         141.1908  142.5827  167.0936 C.ar    1  UNL1        0.0157
     15 C         140.2853  143.1360  168.1537 C.ar    1  UNL1        0.0041
     16 C         140.7713  143.2555  169.5677 C.ar    1  UNL1        0.0339
     17 C         142.1630  142.8217  169.9216 C.ar    1  UNL1        0.1254
     18 N         142.6491  142.9412  171.3356 N.pl3   1  UNL1       -0.3426
     19 N         143.0685  142.2684  168.8614 N.ar    1  UNL1       -0.2296
     20 C         142.5823  142.1489  167.4474 C.ar    1  UNL1        0.0999
     21 H         142.0548  143.3043  172.0314 H       1  UNL1        0.1437
     22 H         143.5625  142.6565  171.5678 H       1  UNL1        0.1437
     23 N         141.8433  145.7509  159.5336 N.am    1  UNL1       -0.3252
     24 C         140.5214  145.3132  158.9763 C.2     1  UNL1        0.2457
     25 O         139.8401  146.1388  157.9254 O.2     1  UNL1       -0.2703
     26 H         142.2639  146.5801  159.2098 H       1  UNL1        0.1453
     27 H         142.2905  145.2091  160.2233 H       1  UNL1        0.1453
     28 N         137.9586  140.2598  160.9500 N.pl3   1  UNL1       -0.3127
     29 H         137.0328  140.2755  161.2845 H       1  UNL1        0.1484
     30 C         138.7285  138.9725  160.9337 C.3     1  UNL1        0.1663
     31 C         138.5961  138.0049  162.0721 C.3     1  UNL1        0.4135
     32 F         138.4638  137.0373  163.2106 F       1  UNL1       -0.1682
     33 F         140.0424  138.2089  162.4137 F       1  UNL1       -0.1682
     34 F         137.1498  137.8010  161.7306 F       1  UNL1       -0.1682
     35 C         139.6308  138.6530  159.7788 C.3     1  UNL1        0.0264
     36 C         139.8179  138.3490  158.3219 C.3     1  UNL1        0.0020
     37 C         141.0064  138.4034  159.2354 C.3     1  UNL1        0.0020
@<TRIPOS>BOND
     1    23    24   am
     2    24    25    2
     3    24     1    1
     4     1     2   ar
     5     2     3   ar
     6     3     4   ar
     7     4    28    1
     8    30    28    1
     9    30    35    1
    10    35    36    1
    11    36    37    1
    12    30    31    1
    13    31    32    1
    14    31    33    1
    15    31    34    1
    16     4     5   ar
    17     5     6   ar
    18     6     7    1
    19     7     8    2
    20     8     9    1
    21     9    10    1
    22    10    14    1
    23    14    15   ar
    24    15    16   ar
    25    16    17   ar
    26    17    18    1
    27    17    19   ar
    28    19    20   ar
    29    10    11    2
    30    11    12    1
    31    12    13    2
    32     6     1   ar
    33    13     8    1
    34    37    35    1
    35    13     5    1
    36    20    14   ar
    37    23    26    1
    38    23    27    1
    39    28    29    1
    40    18    21    1
    41    18    22    1
@<TRIPOS>MOLECULE
*****
 37 41 0 0 0
SMALL
GASTEIGER

@<TRIPOS>ATOM
      1 C         140.4126  143.9417  163.7646 C.ar    1  UNL1        0.0899
      2 C         139.6173  143.8630  165.0339 C.ar    1  UNL1        0.1063
      3 N         138.8864  142.6008  165.3840 N.ar    1  UNL1       -0.2291
      4 C         138.9508  141.4173  164.4646 C.ar    1  UNL1        0.1301
      5 C         139.7461  141.4960  163.1953 C.ar    1  UNL1        0.0503
      6 C         140.4770  142.7582  162.8452 C.ar    1  UNL1        0.0895
      7 N         141.1748  142.5416  161.5353 N.2     1  UNL1       -0.2490
      8 C         140.8752  141.1455  161.0757 C.2     1  UNL1        0.0634
      9 C         141.2924  140.3792  159.8556 C.3     1  UNL1        0.0721
     10 C         140.8266  138.9667  159.6614 C.2     1  UNL1       -0.0147
     11 C         139.9435  138.3205  160.6874 C.2     1  UNL1       -0.0038
     12 C         139.5263  139.0867  161.9075 C.2     1  UNL1        0.0010
     13 C         139.9922  140.4993  162.1017 C.2     1  UNL1        0.0180
     14 C         141.2438  138.2004  158.4413 C.ar    1  UNL1        0.0157
     15 C         140.2296  137.8482  157.3937 C.ar    1  UNL1        0.0041
     16 C         140.6467  137.0819  156.1735 C.ar    1  UNL1        0.0339
     17 C         142.0781  136.6677  156.0010 C.ar    1  UNL1        0.1254
     18 N         142.4952  135.9014  154.7809 N.pl3   1  UNL1       -0.3426
     19 N         143.0922  137.0198  157.0486 N.ar    1  UNL1       -0.2296
     20 C         142.6750  137.7862  158.2687 C.ar    1  UNL1        0.0999
     21 H         141.8295  135.6703  154.0933 H       1  UNL1        0.1437
     22 H         143.4346  135.6295  154.6676 H       1  UNL1        0.1437
     23 N         140.4872  146.2337  162.5436 N.am    1  UNL1       -0.3252
     24 C         141.1435  145.2039  163.4146 C.2     1  UNL1        0.2457
     25 O         142.5309  145.4364  163.9356 O.2     1  UNL1       -0.2703
     26 H         140.9670  147.0621  162.3138 H       1  UNL1        0.1453
     27 H         139.5767  146.0812  162.2016 H       1  UNL1        0.1453
     28 N         138.2198  140.1550  164.8147 N.pl3   1  UNL1       -0.3127
     29 H         137.2738  140.0482  164.5639 H       1  UNL1        0.1484
     30 C         138.9303  139.0554  165.5470 C.3     1  UNL1        0.1663
     31 C         138.1418  137.9771  166.2292 C.3     1  UNL1        0.4135
     32 F         137.3534  136.8986  166.9113 F       1  UNL1       -0.1682
     33 F         137.4337  139.0139  167.0498 F       1  UNL1       -0.1682
     34 F         138.8500  136.9402  165.4085 F       1  UNL1       -0.1682
     35 C         140.4293  139.0344  165.5971 C.3     1  UNL1        0.0264
     36 C         141.7391  138.5151  165.0824 C.3     1  UNL1        0.0020
     37 C         141.7159  139.5170  166.1985 C.3     1  UNL1        0.0020
@<TRIPOS>BOND
     1    23    24   am
     2    24    25    2
     3    24     1    1
     4     1     2   ar
     5     2     3   ar
     6     3     4   ar
     7     4    28    1
     8    30    28    1
     9    30    35    1
    10    35    36    1
    11    36    37    1
    12    30    31    1
    13    31    32    1
    14    31    33    1
    15    31    34    1
    16     4     5   ar
    17     5     6   ar
    18     6     7    1
    19     7     8    2
    20     8     9    1
    21     9    10    1
    22    10    14    1
    23    14    15   ar
    24    15    16   ar
    25    16    17   ar
    26    17    18    1
    27    17    19   ar
    28    19    20   ar
    29    10    11    2
    30    11    12    1
    31    12    13    2
    32     6     1   ar
    33    13     8    1
    34    37    35    1
    35    13     5    1
    36    20    14   ar
    37    23    26    1
    38    23    27    1
    39    28    29    1
    40    18    21    1
    41    18    22    1
@<TRIPOS>MOLECULE
*****
 37 41 0 0 0
SMALL
GASTEIGER

@<TRIPOS>ATOM
      1 C         142.0375  141.5746  168.2437 C.ar    1  UNL1        0.0899
      2 C         141.0446  140.7296  168.9854 C.ar    1  UNL1        0.1063
      3 N         139.8272  140.2095  168.2801 N.ar    1  UNL1       -0.2291
      4 C         139.6028  140.5344  166.8330 C.ar    1  UNL1        0.1301
      5 C         140.5956  141.3793  166.0912 C.ar    1  UNL1        0.0503
      6 C         141.8130  141.8994  166.7965 C.ar    1  UNL1        0.0895
      7 N         142.6111  142.7024  165.8126 N.2     1  UNL1       -0.2490
      8 C         141.8870  142.6786  164.4991 C.2     1  UNL1        0.0634
      9 C         142.2010  143.2959  163.1686 C.3     1  UNL1        0.0721
     10 C         141.2693  143.0954  162.0103 C.2     1  UNL1       -0.0147
     11 C         140.0237  142.2777  162.1825 C.2     1  UNL1       -0.0038
     12 C         139.7097  141.6604  163.5130 C.2     1  UNL1        0.0010
     13 C         140.6414  141.8609  164.6713 C.2     1  UNL1        0.0180
     14 C         141.5833  143.7128  160.6797 C.ar    1  UNL1        0.0157
     15 C         140.6806  144.7667  160.1102 C.ar    1  UNL1        0.0041
     16 C         140.9945  145.3840  158.7797 C.ar    1  UNL1        0.0339
     17 C         142.2111  144.9474  158.0186 C.ar    1  UNL1        0.1254
     18 N         142.5250  145.5647  156.6880 N.pl3   1  UNL1       -0.3426
     19 N         143.1138  143.8934  158.5880 N.ar    1  UNL1       -0.2296
     20 C         142.7998  143.2761  159.9186 C.ar    1  UNL1        0.0999
     21 H         141.9325  146.2564  156.3143 H       1  UNL1        0.1437
     22 H         143.3235  145.2781  156.1885 H       1  UNL1        0.1437
     23 N         143.4743  141.7780  170.3986 N.am    1  UNL1       -0.3252
     24 C         143.2548  142.0947  168.9490 C.2     1  UNL1        0.2457
     25 O         144.2528  142.9315  168.2047 O.2     1  UNL1       -0.2703
     26 H         144.2733  142.1193  170.8615 H       1  UNL1        0.1453
     27 H         142.8194  141.2288  170.8871 H       1  UNL1        0.1453
     28 N         138.3853  140.0142  166.1276 N.pl3   1  UNL1       -0.3127
     29 H         137.6147  140.6072  165.9735 H       1  UNL1        0.1484
     30 C         138.3421  138.5905  165.6572 C.3     1  UNL1        0.1663
     31 C         137.7859  137.5219  166.5508 C.3     1  UNL1        0.4135
     32 F         137.2298  136.4532  167.4445 F       1  UNL1       -0.1682
     33 F         138.4992  136.4769  165.7450 F       1  UNL1       -0.1682
     34 F         137.0727  138.5669  167.3566 F       1  UNL1       -0.1682
     35 C         138.8550  138.2356  164.2931 C.3     1  UNL1        0.0264
     36 C         139.9979  137.8965  163.3827 C.3     1  UNL1        0.0020
     37 C         138.6007  137.9598  162.8408 C.3     1  UNL1        0.0020
@<TRIPOS>BOND
     1    23    24   am
     2    24    25    2
     3    24     1    1
     4     1     2   ar
     5     2     3   ar
     6     3     4   ar
     7     4    28    1
     8    30    28    1
     9    30    35    1
    10    35    36    1
    11    36    37    1
    12    30    31    1
    13    31    32    1
    14    31    33    1
    15    31    34    1
    16     4     5   ar
    17     5     6   ar
    18     6     7    1
    19     7     8    2
    20     8     9    1
    21     9    10    1
    22    10    14    1
    23    14    15   ar
    24    15    16   ar
    25    16    17   ar
    26    17    18    1
    27    17    19   ar
    28    19    20   ar
    29    10    11    2
    30    11    12    1
    31    12    13    2
    32     6     1   ar
    33    13     8    1
    34    37    35    1
    35    13     5    1
    36    20    14   ar
    37    23    26    1
    38    23    27    1
    39    28    29    1
    40    18    21    1
    41    18    22    1
@<TRIPOS>MOLECULE
*****
 37 41 0 0 0
SMALL
GASTEIGER

@<TRIPOS>ATOM
      1 C         143.2484  142.5615  165.2608 C.ar    1  UNL1        0.0899
      2 C         142.7768  142.3039  166.6612 C.ar    1  UNL1        0.1063
      3 N         141.8719  141.1421  166.9460 N.ar    1  UNL1       -0.2291
      4 C         141.4385  140.2378  165.8304 C.ar    1  UNL1        0.1301
      5 C         141.9101  140.4954  164.4300 C.ar    1  UNL1        0.0503
      6 C         142.8151  141.6573  164.1452 C.ar    1  UNL1        0.0895
      7 N         143.1157  141.6612  162.6756 N.2     1  UNL1       -0.2490
      8 C         142.3965  140.5018  162.0522 C.2     1  UNL1        0.0634
      9 C         142.3239  140.0091  160.6374 C.3     1  UNL1        0.0721
     10 C         141.5062  138.7959  160.3068 C.2     1  UNL1       -0.0147
     11 C         140.7611  138.0753  161.3911 C.2     1  UNL1       -0.0038
     12 C         140.8337  138.5681  162.8059 C.2     1  UNL1        0.0010
     13 C         141.6514  139.7813  163.1365 C.2     1  UNL1        0.0180
     14 C         141.4335  138.3031  158.8918 C.ar    1  UNL1        0.0157
     15 C         142.6531  137.7284  158.2343 C.ar    1  UNL1        0.0041
     16 C         142.5805  137.2357  156.8194 C.ar    1  UNL1        0.0339
     17 C         141.2883  137.3175  156.0621 C.ar    1  UNL1        0.1254
     18 N         141.2157  136.8247  154.6472 N.pl3   1  UNL1       -0.3426
     19 N         140.0687  137.8921  156.7196 N.ar    1  UNL1       -0.2296
     20 C         140.1414  138.3849  158.1346 C.ar    1  UNL1        0.0999
     21 H         142.0162  136.4476  154.2156 H       1  UNL1        0.1437
     22 H         140.3676  136.8785  154.1501 H       1  UNL1        0.1437
     23 N         144.0481  144.4535  163.6700 N.am    1  UNL1       -0.3252
     24 C         144.1534  143.7234  164.9760 C.2     1  UNL1        0.2457
     25 O         145.1637  144.1552  165.9973 O.2     1  UNL1       -0.2703
     26 H         144.6421  145.2160  163.4830 H       1  UNL1        0.1453
     27 H         143.3851  144.1701  162.9997 H       1  UNL1        0.1453
     28 N         140.5335  139.0759  166.1153 N.pl3   1  UNL1       -0.3127
     29 H         140.9087  138.2312  166.4542 H       1  UNL1        0.1484
     30 C         139.0567  139.2012  165.8838 C.3     1  UNL1        0.1663
     31 C         138.1147  138.2068  166.4950 C.3     1  UNL1        0.4135
     32 F         137.1726  137.2124  167.1063 F       1  UNL1       -0.1682
     33 F         138.4667  137.2158  165.4254 F       1  UNL1       -0.1682
     34 F         137.7627  139.1978  167.5646 F       1  UNL1       -0.1682
     35 C         138.5221  140.3209  165.0410 C.3     1  UNL1        0.0264
     36 C         137.8642  140.7980  163.7802 C.3     1  UNL1        0.0020
     37 C         138.2541  141.7832  164.8419 C.3     1  UNL1        0.0020
@<TRIPOS>BOND
     1    23    24   am
     2    24    25    2
     3    24     1    1
     4     1     2   ar
     5     2     3   ar
     6     3     4   ar
     7     4    28    1
     8    30    28    1
     9    30    35    1
    10    35    36    1
    11    36    37    1
    12    30    31    1
    13    31    32    1
    14    31    33    1
    15    31    34    1
    16     4     5   ar
    17     5     6   ar
    18     6     7    1
    19     7     8    2
    20     8     9    1
    21     9    10    1
    22    10    14    1
    23    14    15   ar
    24    15    16   ar
    25    16    17   ar
    26    17    18    1
    27    17    19   ar
    28    19    20   ar
    29    10    11    2
    30    11    12    1
    31    12    13    2
    32     6     1   ar
    33    13     8    1
    34    37    35    1
    35    13     5    1
    36    20    14   ar
    37    23    26    1
    38    23    27    1
    39    28    29    1
    40    18    21    1
    41    18    22    1
@<TRIPOS>MOLECULE
*****
 37 41 0 0 0
SMALL
GASTEIGER

@<TRIPOS>ATOM
      1 C         143.2554  139.4104  159.9470 C.ar    1  UNL1        0.0899
      2 C         143.7328  140.5036  159.0375 C.ar    1  UNL1        0.1063
      3 N         143.8440  141.9094  159.5488 N.ar    1  UNL1       -0.2291
      4 C         143.4780  142.2220  160.9694 C.ar    1  UNL1        0.1301
      5 C         143.0006  141.1288  161.8789 C.ar    1  UNL1        0.0503
      6 C         142.8893  139.7231  161.3677 C.ar    1  UNL1        0.0895
      7 N         142.3918  138.8601  162.4891 N.2     1  UNL1       -0.2490
      8 C         142.1956  139.7325  163.6935 C.2     1  UNL1        0.0634
      9 C         141.7230  139.4313  165.0848 C.3     1  UNL1        0.0721
     10 C         141.6266  140.5322  166.0989 C.2     1  UNL1       -0.0147
     11 C         142.0028  141.9344  165.7217 C.2     1  UNL1       -0.0038
     12 C         142.4755  142.2357  164.3304 C.2     1  UNL1        0.0010
     13 C         142.5719  141.1347  163.3163 C.2     1  UNL1        0.0180
     14 C         141.1539  140.2310  167.4903 C.ar    1  UNL1        0.0157
     15 C         142.1448  139.8732  168.5580 C.ar    1  UNL1        0.0041
     16 C         141.6722  139.5720  169.9494 C.ar    1  UNL1        0.0339
     17 C         140.2086  139.6287  170.2731 C.ar    1  UNL1        0.1254
     18 N         139.7360  139.3275  171.6644 N.pl3   1  UNL1       -0.3426
     19 N         139.2177  139.9865  169.2054 N.ar    1  UNL1       -0.2296
     20 C         139.6904  140.2877  167.8140 C.ar    1  UNL1        0.0999
     21 H         140.3864  139.0926  172.3652 H       1  UNL1        0.1437
     22 H         138.7754  139.3647  171.8769 H       1  UNL1        0.1437
     23 N         143.0935  136.8575  160.4008 N.am    1  UNL1       -0.3252
     24 C         143.1442  138.0046  159.4358 C.2     1  UNL1        0.2457
     25 O         143.0836  137.7460  157.9594 O.2     1  UNL1       -0.2703
     26 H         143.0204  135.9348  160.0652 H       1  UNL1        0.1453
     27 H         143.1332  137.0272  161.3697 H       1  UNL1        0.1453
     28 N         143.5893  143.6279  161.4806 N.pl3   1  UNL1       -0.3127
     29 H         144.4725  144.0037  161.6992 H       1  UNL1        0.1484
     30 C         142.3547  144.4610  161.6588 C.3     1  UNL1        0.1663
     31 C         142.1194  145.1866  162.9502 C.3     1  UNL1        0.4135
     32 F         141.8841  145.9123  164.2418 F       1  UNL1       -0.1682
     33 F         143.6002  145.3414  163.1331 F       1  UNL1       -0.1682
     34 F         140.6386  145.0319  162.7674 F       1  UNL1       -0.1682
     35 C         141.3554  144.5685  160.5453 C.3     1  UNL1        0.0264
     36 C         140.2183  143.9857  159.7595 C.3     1  UNL1        0.0020
     37 C         140.7617  145.3374  159.4023 C.3     1  UNL1        0.0020
@<TRIPOS>BOND
     1    23    24   am
     2    24    25    2
     3    24     1    1
     4     1     2   ar
     5     2     3   ar
     6     3     4   ar
     7     4    28    1
     8    30    28    1
     9    30    35    1
    10    35    36    1
    11    36    37    1
    12    30    31    1
    13    31    32    1
    14    31    33    1
    15    31    34    1
    16     4     5   ar
    17     5     6   ar
    18     6     7    1
    19     7     8    2
    20     8     9    1
    21     9    10    1
    22    10    14    1
    23    14    15   ar
    24    15    16   ar
    25    16    17   ar
    26    17    18    1
    27    17    19   ar
    28    19    20   ar
    29    10    11    2
    30    11    12    1
    31    12    13    2
    32     6     1   ar
    33    13     8    1
    34    37    35    1
    35    13     5    1
    36    20    14   ar
    37    23    26    1
    38    23    27    1
    39    28    29    1
    40    18    21    1
    41    18    22    1
@<TRIPOS>MOLECULE
*****
 37 41 0 0 0
SMALL
GASTEIGER

@<TRIPOS>ATOM
      1 C         138.8771  139.1106  166.3645 C.ar    1  UNL1        0.0899
      2 C         139.3666  140.1630  167.3146 C.ar    1  UNL1        0.1063
      3 N         140.3597  141.1876  166.8521 N.ar    1  UNL1       -0.2291
      4 C         140.8634  141.1597  165.4395 C.ar    1  UNL1        0.1301
      5 C         140.3739  140.1073  164.4893 C.ar    1  UNL1        0.0503
      6 C         139.3808  139.0827  164.9518 C.ar    1  UNL1        0.0895
      7 N         139.0817  138.1730  163.7974 N.2     1  UNL1       -0.2490
      8 C         139.8900  138.6352  162.6213 C.2     1  UNL1        0.0634
      9 C         140.0019  138.1221  161.2164 C.3     1  UNL1        0.0721
     10 C         140.9125  138.8044  160.2390 C.2     1  UNL1       -0.0147
     11 C         141.7112  139.9999  160.6667 C.2     1  UNL1       -0.0038
     12 C         141.5992  140.5131  162.0717 C.2     1  UNL1        0.0010
     13 C         140.6886  139.8308  163.0490 C.2     1  UNL1        0.0180
     14 C         141.0245  138.2912  158.8339 C.ar    1  UNL1        0.0157
     15 C         139.8112  138.2457  157.9532 C.ar    1  UNL1        0.0041
     16 C         139.9231  137.7325  156.5482 C.ar    1  UNL1        0.0339
     17 C         141.2484  137.2649  156.0239 C.ar    1  UNL1        0.1254
     18 N         141.3604  136.7517  154.6188 N.pl3   1  UNL1       -0.3426
     19 N         142.4618  137.3104  156.9046 N.ar    1  UNL1       -0.2296
     20 C         142.3498  137.8236  158.3097 C.ar    1  UNL1        0.0999
     21 H         140.5640  136.7218  154.0408 H       1  UNL1        0.1437
     22 H         142.2302  136.4448  154.2747 H       1  UNL1        0.1437
     23 N         137.7303  136.7975  166.0748 N.am    1  UNL1       -0.3252
     24 C         137.8840  138.0860  166.8270 C.2     1  UNL1        0.2457
     25 O         137.0445  138.3500  168.0418 O.2     1  UNL1       -0.2703
     26 H         137.0785  136.1250  166.3784 H       1  UNL1        0.1453
     27 H         138.2813  136.6242  165.2775 H       1  UNL1        0.1453
     28 N         141.8566  142.1844  164.9770 N.pl3   1  UNL1       -0.3127
     29 H         141.5443  143.0172  164.5549 H       1  UNL1        0.1484
     30 C         143.3255  141.9400  165.1577 C.3     1  UNL1        0.1663
     31 C         144.2245  143.0601  165.5902 C.3     1  UNL1        0.4135
     32 F         145.1236  144.1802  166.0227 F       1  UNL1       -0.1682
     33 F         144.5943  143.3158  164.1591 F       1  UNL1       -0.1682
     34 F         143.8548  142.8043  167.0212 F       1  UNL1       -0.1682
     35 C         143.8953  140.5755  164.9058 C.3     1  UNL1        0.0264
     36 C         144.8243  139.6757  164.1461 C.3     1  UNL1        0.0020
     37 C         143.9532  139.1120  165.2293 C.3     1  UNL1        0.0020
@<TRIPOS>BOND
     1    23    24   am
     2    24    25    2
     3    24     1    1
     4     1     2   ar
     5     2     3   ar
     6     3     4   ar
     7     4    28    1
     8    30    28    1
     9    30    35    1
    10    35    36    1
    11    36    37    1
    12    30    31    1
    13    31    32    1
    14    31    33    1
    15    31    34    1
    16     4     5   ar
    17     5     6   ar
    18     6     7    1
    19     7     8    2
    20     8     9    1
    21     9    10    1
    22    10    14    1
    23    14    15   ar
    24    15    16   ar
    25    16    17   ar
    26    17    18    1
    27    17    19   ar
    28    19    20   ar
    29    10    11    2
    30    11    12    1
    31    12    13    2
    32     6     1   ar
    33    13     8    1
    34    37    35    1
    35    13     5    1
    36    20    14   ar
    37    23    26    1
    38    23    27    1
    39    28    29    1
    40    18    21    1
    41    18    22    1
@<TRIPOS>MOLECULE
*****
 37 41 0 0 0
SMALL
GASTEIGER

@<TRIPOS>ATOM
      1 C         142.5059  139.4868  159.5926 C.ar    1  UNL1        0.0899
      2 C         142.2418  140.4980  158.5166 C.ar    1  UNL1        0.1063
      3 N         141.9488  141.9229  158.8822 N.ar    1  UNL1       -0.2291
      4 C         141.9200  142.3367  160.3238 C.ar    1  UNL1        0.1301
      5 C         142.1841  141.3255  161.3997 C.ar    1  UNL1        0.0503
      6 C         142.4771  139.9005  161.0341 C.ar    1  UNL1        0.0895
      7 N         142.6968  139.1322  162.3035 N.2     1  UNL1       -0.2490
      8 C         142.5397  140.0823  163.4536 C.2     1  UNL1        0.0634
      9 C         142.6442  139.8881  164.9373 C.3     1  UNL1        0.0721
     10 C         142.4318  141.0496  165.8624 C.2     1  UNL1       -0.0147
     11 C         142.1150  142.4052  165.3038 C.2     1  UNL1       -0.0038
     12 C         142.0105  142.5993  163.8201 C.2     1  UNL1        0.0010
     13 C         142.2228  141.4378  162.8950 C.2     1  UNL1        0.0180
     14 C         142.5364  140.8555  167.3461 C.ar    1  UNL1        0.0157
     15 C         142.5375  142.0451  168.2598 C.ar    1  UNL1        0.0041
     16 C         142.6420  141.8511  169.7435 C.ar    1  UNL1        0.0339
     17 C         142.7453  140.4675  170.3136 C.ar    1  UNL1        0.1254
     18 N         142.8498  140.2735  171.7973 N.pl3   1  UNL1       -0.3426
     19 N         142.7442  139.2779  169.3999 N.ar    1  UNL1       -0.2296
     20 C         142.6397  139.4719  167.9161 C.ar    1  UNL1        0.0999
     21 H         142.8506  141.0542  172.3970 H       1  UNL1        0.1437
     22 H         142.9177  139.3654  172.1714 H       1  UNL1        0.1437
     23 N         143.1404  137.0680  160.2972 N.am    1  UNL1       -0.3252
     24 C         142.7988  138.0618  159.2270 C.2     1  UNL1        0.2457
     25 O         142.7502  137.6307  157.7910 O.2     1  UNL1       -0.2703
     26 H         143.3327  136.1328  160.0573 H       1  UNL1        0.1453
     27 H         143.1724  137.3509  161.2397 H       1  UNL1        0.1453
     28 N         141.6270  143.7618  160.6893 N.pl3   1  UNL1       -0.3127
     29 H         142.3417  144.4376  160.6475 H       1  UNL1        0.1484
     30 C         140.2452  144.1570  161.1186 C.3     1  UNL1        0.1663
     31 C         139.9561  145.5785  161.5001 C.3     1  UNL1        0.4135
     32 F         139.6669  147.0001  161.8816 F       1  UNL1       -0.1682
     33 F         139.9154  145.1821  162.9462 F       1  UNL1       -0.1682
     34 F         139.9967  145.9748  160.0540 F       1  UNL1       -0.1682
     35 C         139.1524  143.1305  161.1663 C.3     1  UNL1        0.0264
     36 C         138.3691  142.0353  160.5052 C.3     1  UNL1        0.0020
     37 C         138.0430  142.4478  161.9100 C.3     1  UNL1        0.0020
@<TRIPOS>BOND
     1    23    24   am
     2    24    25    2
     3    24     1    1
     4     1     2   ar
     5     2     3   ar
     6     3     4   ar
     7     4    28    1
     8    30    28    1
     9    30    35    1
    10    35    36    1
    11    36    37    1
    12    30    31    1
    13    31    32    1
    14    31    33    1
    15    31    34    1
    16     4     5   ar
    17     5     6   ar
    18     6     7    1
    19     7     8    2
    20     8     9    1
    21     9    10    1
    22    10    14    1
    23    14    15   ar
    24    15    16   ar
    25    16    17   ar
    26    17    18    1
    27    17    19   ar
    28    19    20   ar
    29    10    11    2
    30    11    12    1
    31    12    13    2
    32     6     1   ar
    33    13     8    1
    34    37    35    1
    35    13     5    1
    36    20    14   ar
    37    23    26    1
    38    23    27    1
    39    28    29    1
    40    18    21    1
    41    18    22    1
@<TRIPOS>MOLECULE
*****
 37 41 0 0 0
SMALL
GASTEIGER

@<TRIPOS>ATOM
      1 C         142.1363  139.6706  166.6214 C.ar    1  UNL1        0.0899
      2 C         141.1615  140.5393  167.3597 C.ar    1  UNL1        0.1063
      3 N         140.2039  141.4070  166.5981 N.ar    1  UNL1       -0.2291
      4 C         140.2211  141.4060  165.0981 C.ar    1  UNL1        0.1301
      5 C         141.1958  140.5372  164.3599 C.ar    1  UNL1        0.0503
      6 C         142.1534  139.6695  165.1215 C.ar    1  UNL1        0.0895
      7 N         142.9940  138.9237  164.1278 N.2     1  UNL1       -0.2490
      8 C         142.5558  139.3305  162.7521 C.2     1  UNL1        0.0634
      9 C         143.0253  138.9218  161.3874 C.3     1  UNL1        0.0721
     10 C         142.3834  139.5102  160.1661 C.2     1  UNL1       -0.0147
     11 C         141.2720  140.5074  160.3095 C.2     1  UNL1       -0.0038
     12 C         140.8026  140.9161  161.6742 C.2     1  UNL1        0.0010
     13 C         141.4445  140.3277  162.8955 C.2     1  UNL1        0.0180
     14 C         142.8528  139.1014  158.8013 C.ar    1  UNL1        0.0157
     15 C         142.4540  137.7693  158.2388 C.ar    1  UNL1        0.0041
     16 C         142.9234  137.3605  156.8741 C.ar    1  UNL1        0.0339
     17 C         143.7916  138.2839  156.0717 C.ar    1  UNL1        0.1254
     18 N         144.2610  137.8751  154.7070 N.pl3   1  UNL1       -0.3426
     19 N         144.1904  139.6161  156.6342 N.ar    1  UNL1       -0.2296
     20 C         143.7209  140.0248  157.9990 C.ar    1  UNL1        0.0999
     21 H         143.9993  137.0008  154.3378 H       1  UNL1        0.1437
     22 H         144.8308  138.4812  154.1804 H       1  UNL1        0.1437
     23 N         144.0794  137.9463  166.6450 N.am    1  UNL1       -0.3252
     24 C         143.0939  138.8029  167.3830 C.2     1  UNL1        0.2457
     25 O         143.0659  138.7918  168.8828 O.2     1  UNL1       -0.2703
     26 H         144.7079  137.3768  167.1449 H       1  UNL1        0.1453
     27 H         144.0978  137.9535  165.6607 H       1  UNL1        0.1453
     28 N         139.2634  142.2737  164.3365 N.pl3   1  UNL1       -0.3127
     29 H         138.5532  141.8631  163.7921 H       1  UNL1        0.1484
     30 C         139.3878  143.7670  164.4044 C.3     1  UNL1        0.1663
     31 C         138.3889  144.5682  165.1855 C.3     1  UNL1        0.4135
     32 F         137.3900  145.3694  165.9667 F       1  UNL1       -0.1682
     33 F         139.2966  144.5360  166.3793 F       1  UNL1       -0.1682
     34 F         137.4812  144.6003  163.9917 F       1  UNL1       -0.1682
     35 C         140.5113  144.4591  163.6911 C.3     1  UNL1        0.0264
     36 C         141.7750  145.2661  163.7327 C.3     1  UNL1        0.0020
     37 C         141.1934  144.8509  162.4139 C.3     1  UNL1        0.0020
@<TRIPOS>BOND
     1    23    24   am
     2    24    25    2
     3    24     1    1
     4     1     2   ar
     5     2     3   ar
     6     3     4   ar
     7     4    28    1
     8    30    28    1
     9    30    35    1
    10    35    36    1
    11    36    37    1
    12    30    31    1
    13    31    32    1
    14    31    33    1
    15    31    34    1
    16     4     5   ar
    17     5     6   ar
    18     6     7    1
    19     7     8    2
    20     8     9    1
    21     9    10    1
    22    10    14    1
    23    14    15   ar
    24    15    16   ar
    25    16    17   ar
    26    17    18    1
    27    17    19   ar
    28    19    20   ar
    29    10    11    2
    30    11    12    1
    31    12    13    2
    32     6     1   ar
    33    13     8    1
    34    37    35    1
    35    13     5    1
    36    20    14   ar
    37    23    26    1
    38    23    27    1
    39    28    29    1
    40    18    21    1
    41    18    22    1
