@<TRIPOS>MOLECULE
*****
 35 39 0 0 0
SMALL
GASTEIGER

@<TRIPOS>ATOM
      1 C         142.2647  139.0834  162.2156 C.2     1  UNL1       -0.0153
      2 C         143.3395  138.1215  161.8038 C.2     1  UNL1       -0.0038
      3 C         143.3949  137.6184  160.3918 C.2     1  UNL1        0.0026
      4 C         142.3755  138.0772  159.3916 C.2     1  UNL1        0.0395
      5 C         142.1784  137.7555  157.9397 C.2     1  UNL1        0.1571
      6 N         140.9818  138.5187  157.4543 N.2     1  UNL1       -0.1436
      7 N         140.4394  139.3119  158.6061 N.2     1  UNL1       -0.1519
      8 C         141.3008  139.0391  159.8034 C.2     1  UNL1        0.0865
      9 C         141.2454  139.5422  161.2154 C.3     1  UNL1        0.0740
     10 C         142.0984  140.5929  166.4517 C.ar    1  UNL1        0.0677
     11 C         142.9844  141.2700  165.4483 C.ar    1  UNL1        0.0177
     12 C         143.0398  140.7669  164.0363 C.ar    1  UNL1        0.0020
     13 C         142.2093  139.5865  163.6276 C.ar    1  UNL1        0.0071
     14 C         141.3234  138.9094  164.6309 C.ar    1  UNL1        0.0588
     15 CL        140.4929  137.7290  164.2221 Cl      1  UNL1       -0.0822
     16 C         141.2679  139.4125  166.0429 C.ar    1  UNL1        0.0290
     17 C         140.3661  144.0349  169.9375 C.3     1  UNL1        0.0360
     18 C         141.1769  142.8171  169.6065 C.ar    1  UNL1        0.0347
     19 C         141.9322  142.1024  170.6877 C.ar    1  UNL1        0.0020
     20 C         142.7430  140.8845  170.3567 C.ar    1  UNL1        0.0189
     21 C         142.7983  140.3813  168.9446 C.ar    1  UNL1        0.0829
     22 N         142.0430  141.0960  167.8636 N.ar    1  UNL1       -0.2734
     23 C         141.2323  142.3139  168.1946 C.ar    1  UNL1        0.2607
     24 O         140.4769  143.0286  167.1136 O.2     1  UNL1       -0.2670
     25 C         143.0286  136.8328  157.1177 C.2     1  UNL1        0.2656
     26 O         143.9952  137.3949  156.1178 O.2     1  UNL1       -0.2684
     27 N         142.9123  135.3480  157.2957 N.am    1  UNL1       -0.2956
     28 H         142.2779  134.9791  157.9520 H       1  UNL1        0.1501
     29 C         143.7624  134.4252  156.4737 C.3     1  UNL1        0.1167
     30 C         143.8232  132.9642  156.8081 C.ar    1  UNL1        0.0005
     31 C         142.8118  132.0197  156.2293 C.ar    1  UNL1        0.0181
     32 C         142.8725  130.5587  156.5636 C.ar    1  UNL1        0.0986
     33 N         143.9447  130.0422  157.4767 N.ar    1  UNL1       -0.2423
     34 C         144.9561  130.9867  158.0554 C.ar    1  UNL1        0.0986
     35 C         144.8954  132.4477  157.7211 C.ar    1  UNL1        0.0181
@<TRIPOS>BOND
     1    17    18    1
     2    18    19   ar
     3    19    20   ar
     4    20    21   ar
     5    21    22   ar
     6    22    10    1
     7    10    11   ar
     8    11    12   ar
     9    12    13   ar
    10    13     1    1
    11     1     2    2
    12     2     3    1
    13     3     4    2
    14     4     5    1
    15     5    25    1
    16    25    26    2
    17    25    27   am
    18    27    29    1
    19    29    30    1
    20    30    31   ar
    21    31    32   ar
    22    32    33   ar
    23    33    34   ar
    24    34    35   ar
    25     5     6    2
    26     6     7    1
    27     7     8    2
    28     8     9    1
    29    13    14   ar
    30    14    15    1
    31    14    16   ar
    32    22    23   ar
    33    23    24    2
    34    23    18   ar
    35    16    10   ar
    36     9     1    1
    37     8     4    1
    38    35    30   ar
    39    27    28    1
@<TRIPOS>MOLECULE
*****
 35 39 0 0 0
SMALL
GASTEIGER

@<TRIPOS>ATOM
      1 C         139.3751  141.2475  162.0068 C.2     1  UNL1       -0.0153
      2 C         138.5523  140.1350  161.4278 C.2     1  UNL1       -0.0038
      3 C         138.0430  140.2331  160.0203 C.2     1  UNL1        0.0026
      4 C         138.3565  141.4437  159.1919 C.2     1  UNL1        0.0395
      5 C         137.9946  141.8184  157.7852 C.2     1  UNL1        0.1571
      6 N         138.5939  143.1625  157.4949 N.2     1  UNL1       -0.1436
      7 N         139.3260  143.6185  158.7222 N.2     1  UNL1       -0.1519
      8 C         139.1793  142.5562  159.7709 C.2     1  UNL1        0.0865
      9 C         139.6886  142.4581  161.1784 C.3     1  UNL1        0.0740
     10 C         140.9033  140.9534  166.2292 C.ar    1  UNL1        0.0677
     11 C         141.6636  140.3065  165.1096 C.ar    1  UNL1        0.0177
     12 C         141.1542  140.4046  163.7022 C.ar    1  UNL1        0.0020
     13 C         139.8845  141.1495  163.4143 C.ar    1  UNL1        0.0071
     14 C         139.1241  141.7963  164.5338 C.ar    1  UNL1        0.0588
     15 CL        137.8544  142.5412  164.2459 Cl      1  UNL1       -0.0822
     16 C         139.6335  141.6983  165.9413 C.ar    1  UNL1        0.0290
     17 C         144.2443  142.4425  169.9197 C.3     1  UNL1        0.0360
     18 C         143.0832  141.5999  169.4819 C.ar    1  UNL1        0.0347
     19 C         142.4314  140.6591  170.4516 C.ar    1  UNL1        0.0020
     20 C         141.2702  139.8165  170.0138 C.ar    1  UNL1        0.0189
     21 C         140.7609  139.9146  168.6062 C.ar    1  UNL1        0.0829
     22 N         141.4126  140.8553  167.6366 N.ar    1  UNL1       -0.2734
     23 C         142.5738  141.6980  168.0744 C.ar    1  UNL1        0.2607
     24 O         143.2255  142.6387  167.1048 O.2     1  UNL1       -0.2670
     25 C         137.1771  140.9939  156.8356 C.2     1  UNL1        0.2656
     26 O         137.7460  139.7325  156.2565 O.2     1  UNL1       -0.2684
     27 N         135.7908  141.4307  156.4652 N.am    1  UNL1       -0.2956
     28 H         135.4175  142.2586  156.8453 H       1  UNL1        0.1501
     29 C         134.9732  140.6062  155.5156 C.3     1  UNL1        0.1167
     30 C         133.5610  140.2401  155.8645 C.ar    1  UNL1        0.0005
     31 C         132.4487  141.2128  155.6067 C.ar    1  UNL1        0.0181
     32 C         131.0365  140.8468  155.9555 C.ar    1  UNL1        0.0986
     33 N         130.7366  139.5081  156.5622 N.ar    1  UNL1       -0.2423
     34 C         131.8490  138.5355  156.8200 C.ar    1  UNL1        0.0986
     35 C         133.2612  138.9015  156.4712 C.ar    1  UNL1        0.0181
@<TRIPOS>BOND
     1    17    18    1
     2    18    19   ar
     3    19    20   ar
     4    20    21   ar
     5    21    22   ar
     6    22    10    1
     7    10    11   ar
     8    11    12   ar
     9    12    13   ar
    10    13     1    1
    11     1     2    2
    12     2     3    1
    13     3     4    2
    14     4     5    1
    15     5    25    1
    16    25    26    2
    17    25    27   am
    18    27    29    1
    19    29    30    1
    20    30    31   ar
    21    31    32   ar
    22    32    33   ar
    23    33    34   ar
    24    34    35   ar
    25     5     6    2
    26     6     7    1
    27     7     8    2
    28     8     9    1
    29    13    14   ar
    30    14    15    1
    31    14    16   ar
    32    22    23   ar
    33    23    24    2
    34    23    18   ar
    35    16    10   ar
    36     9     1    1
    37     8     4    1
    38    35    30   ar
    39    27    28    1
@<TRIPOS>MOLECULE
*****
 35 39 0 0 0
SMALL
GASTEIGER

@<TRIPOS>ATOM
      1 C         142.4767  139.1811  161.7450 C.2     1  UNL1       -0.0153
      2 C         142.9132  137.7975  161.3643 C.2     1  UNL1       -0.0038
      3 C         143.0168  137.4153  159.9176 C.2     1  UNL1        0.0026
      4 C         142.6839  138.4167  158.8515 C.2     1  UNL1        0.0395
      5 C         142.6929  138.3290  157.3541 C.2     1  UNL1        0.1571
      6 N         142.2619  139.6584  156.8093 N.2     1  UNL1       -0.1436
      7 N         141.9865  140.5677  157.9701 N.2     1  UNL1       -0.1519
      8 C         142.2473  139.8003  159.2322 C.2     1  UNL1        0.0865
      9 C         142.1437  140.1825  160.6790 C.3     1  UNL1        0.0740
     10 C         142.1657  140.3280  166.0853 C.ar    1  UNL1        0.0677
     11 C         141.0054  139.6712  165.3981 C.ar    1  UNL1        0.0177
     12 C         141.1090  139.2889  163.9514 C.ar    1  UNL1        0.0020
     13 C         142.3730  139.5635  163.1918 C.ar    1  UNL1        0.0071
     14 C         143.5333  140.2203  163.8790 C.ar    1  UNL1        0.0588
     15 CL        144.7973  140.4949  163.1194 Cl      1  UNL1       -0.0822
     16 C         143.4297  140.6026  165.3258 C.ar    1  UNL1        0.0290
     17 C         140.5677  143.6324  169.7633 C.3     1  UNL1        0.0360
     18 C         141.2630  142.3625  169.3710 C.ar    1  UNL1        0.0347
     19 C         141.8547  141.4749  170.4256 C.ar    1  UNL1        0.0020
     20 C         142.5500  140.2050  170.0334 C.ar    1  UNL1        0.0189
     21 C         142.6537  139.8227  168.5866 C.ar    1  UNL1        0.0829
     22 N         142.0620  140.7103  167.5321 N.ar    1  UNL1       -0.2734
     23 C         141.3667  141.9802  167.9243 C.ar    1  UNL1        0.2607
     24 O         140.7750  142.8678  166.8698 O.2     1  UNL1       -0.2670
     25 C         143.0672  137.1235  156.5437 C.2     1  UNL1        0.2656
     26 O         144.3850  137.0802  155.8285 O.2     1  UNL1       -0.2684
     27 N         142.1237  135.9613  156.4485 N.am    1  UNL1       -0.2956
     28 H         141.2587  135.9898  156.9179 H       1  UNL1        0.1501
     29 C         142.4979  134.7558  155.6381 C.3     1  UNL1        0.1167
     30 C         143.4114  133.7167  156.2175 C.ar    1  UNL1        0.0005
     31 C         143.7580  132.4943  155.4202 C.ar    1  UNL1        0.0181
     32 C         144.6716  131.4552  155.9995 C.ar    1  UNL1        0.0986
     33 N         145.2384  131.6384  157.3761 N.ar    1  UNL1       -0.2423
     34 C         144.8918  132.8608  158.1734 C.ar    1  UNL1        0.0986
     35 C         143.9783  133.8999  157.5941 C.ar    1  UNL1        0.0181
@<TRIPOS>BOND
     1    17    18    1
     2    18    19   ar
     3    19    20   ar
     4    20    21   ar
     5    21    22   ar
     6    22    10    1
     7    10    11   ar
     8    11    12   ar
     9    12    13   ar
    10    13     1    1
    11     1     2    2
    12     2     3    1
    13     3     4    2
    14     4     5    1
    15     5    25    1
    16    25    26    2
    17    25    27   am
    18    27    29    1
    19    29    30    1
    20    30    31   ar
    21    31    32   ar
    22    32    33   ar
    23    33    34   ar
    24    34    35   ar
    25     5     6    2
    26     6     7    1
    27     7     8    2
    28     8     9    1
    29    13    14   ar
    30    14    15    1
    31    14    16   ar
    32    22    23   ar
    33    23    24    2
    34    23    18   ar
    35    16    10   ar
    36     9     1    1
    37     8     4    1
    38    35    30   ar
    39    27    28    1
@<TRIPOS>MOLECULE
*****
 35 39 0 0 0
SMALL
GASTEIGER

@<TRIPOS>ATOM
      1 C         140.4353  139.7570  161.7992 C.2     1  UNL1       -0.0153
      2 C         141.1397  138.5813  161.1896 C.2     1  UNL1       -0.0038
      3 C         140.8399  138.1776  159.7765 C.2     1  UNL1        0.0026
      4 C         139.8357  138.9495  158.9729 C.2     1  UNL1        0.0395
      5 C         139.3374  138.7883  157.5672 C.2     1  UNL1        0.1571
      6 N         138.3251  139.8644  157.3081 N.2     1  UNL1       -0.1436
      7 N         138.1977  140.6906  158.5536 N.2     1  UNL1       -0.1519
      8 C         139.1314  140.1252  159.5824 C.2     1  UNL1        0.0865
      9 C         139.4311  140.5289  160.9956 C.3     1  UNL1        0.0740
     10 C         141.3346  140.9684  166.0388 C.ar    1  UNL1        0.0677
     11 C         142.0259  141.6568  164.8993 C.ar    1  UNL1        0.0177
     12 C         141.7261  141.2530  163.4862 C.ar    1  UNL1        0.0020
     13 C         140.7351  140.1608  163.2124 C.ar    1  UNL1        0.0071
     14 C         140.0439  139.4724  164.3518 C.ar    1  UNL1        0.0588
     15 CL        139.0529  138.3801  164.0781 Cl      1  UNL1       -0.0822
     16 C         140.3436  139.8762  165.7651 C.ar    1  UNL1        0.0290
     17 C         140.5361  144.1363  170.0794 C.3     1  UNL1        0.0360
     18 C         141.2352  142.9561  169.4723 C.ar    1  UNL1        0.0347
     19 C         142.2340  142.1798  170.2783 C.ar    1  UNL1        0.0020
     20 C         142.9331  140.9997  169.6711 C.ar    1  UNL1        0.0189
     21 C         142.6332  140.5959  168.2579 C.ar    1  UNL1        0.0829
     22 N         141.6344  141.3722  167.4519 N.ar    1  UNL1       -0.2734
     23 C         140.9354  142.5523  168.0591 C.ar    1  UNL1        0.2607
     24 O         139.9366  143.3287  167.2531 O.2     1  UNL1       -0.2670
     25 C         139.7747  137.7358  156.5920 C.2     1  UNL1        0.2656
     26 O         138.7576  136.8408  155.9482 O.2     1  UNL1       -0.2684
     27 N         141.2291  137.5784  156.2605 N.am    1  UNL1       -0.2956
     28 H         141.8967  138.1658  156.6831 H       1  UNL1        0.1501
     29 C         141.6665  136.5260  155.2853 C.3     1  UNL1        0.1167
     30 C         141.9883  135.1429  155.7686 C.ar    1  UNL1        0.0005
     31 C         142.9507  134.9498  156.9028 C.ar    1  UNL1        0.0181
     32 C         143.2725  133.5667  157.3861 C.ar    1  UNL1        0.0986
     33 N         142.6319  132.3768  156.7351 N.ar    1  UNL1       -0.2423
     34 C         141.6696  132.5699  155.6008 C.ar    1  UNL1        0.0986
     35 C         141.3478  133.9530  155.1176 C.ar    1  UNL1        0.0181
@<TRIPOS>BOND
     1    17    18    1
     2    18    19   ar
     3    19    20   ar
     4    20    21   ar
     5    21    22   ar
     6    22    10    1
     7    10    11   ar
     8    11    12   ar
     9    12    13   ar
    10    13     1    1
    11     1     2    2
    12     2     3    1
    13     3     4    2
    14     4     5    1
    15     5    25    1
    16    25    26    2
    17    25    27   am
    18    27    29    1
    19    29    30    1
    20    30    31   ar
    21    31    32   ar
    22    32    33   ar
    23    33    34   ar
    24    34    35   ar
    25     5     6    2
    26     6     7    1
    27     7     8    2
    28     8     9    1
    29    13    14   ar
    30    14    15    1
    31    14    16   ar
    32    22    23   ar
    33    23    24    2
    34    23    18   ar
    35    16    10   ar
    36     9     1    1
    37     8     4    1
    38    35    30   ar
    39    27    28    1
@<TRIPOS>MOLECULE
*****
 35 39 0 0 0
SMALL
GASTEIGER

@<TRIPOS>ATOM
      1 C         142.1405  139.9348  161.7827 C.2     1  UNL1       -0.0153
      2 C         141.5527  138.7085  161.1500 C.2     1  UNL1       -0.0038
      3 C         141.9058  138.3513  159.7366 C.2     1  UNL1        0.0026
      4 C         142.8467  139.2204  158.9560 C.2     1  UNL1        0.0395
      5 C         143.3755  139.1225  157.5557 C.2     1  UNL1        0.1571
      6 N         144.2902  140.2884  157.3231 N.2     1  UNL1       -0.1436
      7 N         144.3266  141.1068  158.5796 N.2     1  UNL1       -0.1519
      8 C         143.4345  140.4468  159.5888 C.2     1  UNL1        0.0865
      9 C         143.0814  140.8040  161.0022 C.3     1  UNL1        0.0740
     10 C         141.0813  141.0066  166.0230 C.ar    1  UNL1        0.0677
     11 C         140.2032  141.4578  164.8936 C.ar    1  UNL1        0.0177
     12 C         140.5563  141.1005  163.4803 C.ar    1  UNL1        0.0020
     13 C         141.7875  140.2921  163.1962 C.ar    1  UNL1        0.0071
     14 C         142.6656  139.8410  164.3255 C.ar    1  UNL1        0.0588
     15 CL        143.8967  139.0326  164.0415 Cl      1  UNL1       -0.0822
     16 C         142.3125  140.1982  165.7390 C.ar    1  UNL1        0.0290
     17 C         138.3283  140.1099  170.3377 C.3     1  UNL1        0.0360
     18 C         139.3517  140.9155  169.5937 C.ar    1  UNL1        0.0347
     19 C         140.0221  142.0785  170.2632 C.ar    1  UNL1        0.0020
     20 C         141.0455  142.8842  169.5192 C.ar    1  UNL1        0.0189
     21 C         141.3986  142.5269  168.1058 C.ar    1  UNL1        0.0829
     22 N         140.7282  141.3639  167.4364 N.ar    1  UNL1       -0.2734
     23 C         139.7048  140.5583  168.1803 C.ar    1  UNL1        0.2607
     24 O         139.0345  139.3953  167.5109 O.2     1  UNL1       -0.2670
     25 C         143.0473  138.0474  156.5624 C.2     1  UNL1        0.2656
     26 O         141.6370  137.8763  156.0810 O.2     1  UNL1       -0.2684
     27 N         144.1295  137.1436  156.0505 N.am    1  UNL1       -0.2956
     28 H         145.0551  137.2559  156.3665 H       1  UNL1        0.1501
     29 C         143.8014  136.0685  155.0573 C.3     1  UNL1        0.1167
     30 C         143.2867  134.7416  155.5309 C.ar    1  UNL1        0.0005
     31 C         142.2350  134.0200  154.7415 C.ar    1  UNL1        0.0181
     32 C         141.7203  132.6930  155.2150 C.ar    1  UNL1        0.0986
     33 N         142.2574  132.0876  156.4780 N.ar    1  UNL1       -0.2423
     34 C         143.3091  132.8092  157.2674 C.ar    1  UNL1        0.0986
     35 C         143.8238  134.1362  156.7938 C.ar    1  UNL1        0.0181
@<TRIPOS>BOND
     1    17    18    1
     2    18    19   ar
     3    19    20   ar
     4    20    21   ar
     5    21    22   ar
     6    22    10    1
     7    10    11   ar
     8    11    12   ar
     9    12    13   ar
    10    13     1    1
    11     1     2    2
    12     2     3    1
    13     3     4    2
    14     4     5    1
    15     5    25    1
    16    25    26    2
    17    25    27   am
    18    27    29    1
    19    29    30    1
    20    30    31   ar
    21    31    32   ar
    22    32    33   ar
    23    33    34   ar
    24    34    35   ar
    25     5     6    2
    26     6     7    1
    27     7     8    2
    28     8     9    1
    29    13    14   ar
    30    14    15    1
    31    14    16   ar
    32    22    23   ar
    33    23    24    2
    34    23    18   ar
    35    16    10   ar
    36     9     1    1
    37     8     4    1
    38    35    30   ar
    39    27    28    1
@<TRIPOS>MOLECULE
*****
 35 39 0 0 0
SMALL
GASTEIGER

@<TRIPOS>ATOM
      1 C         142.3687  139.7116  162.1043 C.2     1  UNL1       -0.0153
      2 C         141.7460  138.4838  161.5088 C.2     1  UNL1       -0.0038
      3 C         141.9915  138.1413  160.0693 C.2     1  UNL1        0.0026
      4 C         142.8597  139.0265  159.2252 C.2     1  UNL1        0.0395
      5 C         143.2789  138.9450  157.7872 C.2     1  UNL1        0.1571
      6 N         144.1607  140.1225  157.4941 N.2     1  UNL1       -0.1436
      7 N         144.2865  140.9317  158.7508 N.2     1  UNL1       -0.1519
      8 C         143.4825  140.2543  159.8207 C.2     1  UNL1        0.0865
      9 C         143.2370  140.5968  161.2603 C.3     1  UNL1        0.0740
     10 C         141.6323  140.7393  166.4231 C.ar    1  UNL1        0.0677
     11 C         142.6499  139.6977  166.0630 C.ar    1  UNL1        0.0177
     12 C         142.8954  139.3552  164.6234 C.ar    1  UNL1        0.0020
     13 C         142.1232  140.0541  163.5440 C.ar    1  UNL1        0.0071
     14 C         141.1056  141.0956  163.9041 C.ar    1  UNL1        0.0588
     15 CL        140.3334  141.7945  162.8246 Cl      1  UNL1       -0.0822
     16 C         140.8601  141.4382  165.3437 C.ar    1  UNL1        0.0290
     17 C         142.9922  143.3016  170.7341 C.3     1  UNL1        0.0360
     18 C         142.0668  142.3630  170.0182 C.ar    1  UNL1        0.0347
     19 C         140.8959  141.7668  170.7419 C.ar    1  UNL1        0.0020
     20 C         139.9704  140.8282  170.0260 C.ar    1  UNL1        0.0189
     21 C         140.2160  140.4857  168.5863 C.ar    1  UNL1        0.0829
     22 N         141.3868  141.0818  167.8627 N.ar    1  UNL1       -0.2734
     23 C         142.3122  142.0204  168.5786 C.ar    1  UNL1        0.2607
     24 O         143.4831  142.6166  167.8550 O.2     1  UNL1       -0.2670
     25 C         142.8853  137.8742  156.8134 C.2     1  UNL1        0.2656
     26 O         141.4350  137.5895  156.5574 O.2     1  UNL1       -0.2684
     27 N         143.9420  137.0879  156.0957 N.am    1  UNL1       -0.2956
     28 H         144.8939  137.2748  156.2637 H       1  UNL1        0.1501
     29 C         143.5485  136.0170  155.1219 C.3     1  UNL1        0.1167
     30 C         143.1694  134.6536  155.6192 C.ar    1  UNL1        0.0005
     31 C         142.0363  133.9094  154.9771 C.ar    1  UNL1        0.0181
     32 C         141.6572  132.5460  155.4743 C.ar    1  UNL1        0.0986
     33 N         142.4111  131.9267  156.6137 N.ar    1  UNL1       -0.2423
     34 C         143.5441  132.6709  157.2558 C.ar    1  UNL1        0.0986
     35 C         143.9233  134.0344  156.7585 C.ar    1  UNL1        0.0181
@<TRIPOS>BOND
     1    17    18    1
     2    18    19   ar
     3    19    20   ar
     4    20    21   ar
     5    21    22   ar
     6    22    10    1
     7    10    11   ar
     8    11    12   ar
     9    12    13   ar
    10    13     1    1
    11     1     2    2
    12     2     3    1
    13     3     4    2
    14     4     5    1
    15     5    25    1
    16    25    26    2
    17    25    27   am
    18    27    29    1
    19    29    30    1
    20    30    31   ar
    21    31    32   ar
    22    32    33   ar
    23    33    34   ar
    24    34    35   ar
    25     5     6    2
    26     6     7    1
    27     7     8    2
    28     8     9    1
    29    13    14   ar
    30    14    15    1
    31    14    16   ar
    32    22    23   ar
    33    23    24    2
    34    23    18   ar
    35    16    10   ar
    36     9     1    1
    37     8     4    1
    38    35    30   ar
    39    27    28    1
@<TRIPOS>MOLECULE
*****
 35 39 0 0 0
SMALL
GASTEIGER

@<TRIPOS>ATOM
      1 C         140.4016  143.7078  161.8500 C.2     1  UNL1       -0.0153
      2 C         141.0787  144.9378  161.3223 C.2     1  UNL1       -0.0038
      3 C         140.9755  145.2846  159.8666 C.2     1  UNL1        0.0026
      4 C         140.1953  144.4014  158.9387 C.2     1  UNL1        0.0395
      5 C         139.9195  144.4870  157.4667 C.2     1  UNL1        0.1571
      6 N         139.0720  143.3098  157.0847 N.2     1  UNL1       -0.1436
      7 N         138.8240  142.4967  158.3206 N.2     1  UNL1       -0.1519
      8 C         139.5182  143.1713  159.4664 C.2     1  UNL1        0.0865
      9 C         139.6213  142.8245  160.9220 C.3     1  UNL1        0.0740
     10 C         140.7109  142.6672  166.2172 C.ar    1  UNL1        0.0677
     11 C         141.9225  142.5781  165.3372 C.ar    1  UNL1        0.0177
     12 C         141.8193  142.9249  163.8816 C.ar    1  UNL1        0.0020
     13 C         140.5047  143.3609  163.3058 C.ar    1  UNL1        0.0071
     14 C         139.2931  143.4501  164.1856 C.ar    1  UNL1        0.0588
     15 CL        137.9785  143.8861  163.6098 Cl      1  UNL1       -0.0822
     16 C         139.3962  143.1032  165.6414 C.ar    1  UNL1        0.0290
     17 C         141.9117  139.2677  169.9590 C.3     1  UNL1        0.0360
     18 C         141.4144  140.6206  169.5438 C.ar    1  UNL1        0.0347
     19 C         141.0203  141.6267  170.5843 C.ar    1  UNL1        0.0020
     20 C         140.5231  142.9796  170.1690 C.ar    1  UNL1        0.0189
     21 C         140.4199  143.3264  168.7133 C.ar    1  UNL1        0.0829
     22 N         140.8140  142.3204  167.6729 N.ar    1  UNL1       -0.2734
     23 C         141.3113  140.9675  168.0881 C.ar    1  UNL1        0.2607
     24 O         141.7054  139.9614  167.0477 O.2     1  UNL1       -0.2670
     25 C         140.4059  145.5611  156.5395 C.2     1  UNL1        0.2656
     26 O         141.7791  146.1386  156.7156 O.2     1  UNL1       -0.2684
     27 N         139.5192  146.0577  155.4363 N.am    1  UNL1       -0.2956
     28 H         138.6180  145.6786  155.3208 H       1  UNL1        0.1501
     29 C         140.0055  147.1318  154.5091 C.3     1  UNL1        0.1167
     30 C         139.6087  148.5596  154.7417 C.ar    1  UNL1        0.0005
     31 C         138.6423  148.9006  155.8370 C.ar    1  UNL1        0.0181
     32 C         138.2456  150.3283  156.0695 C.ar    1  UNL1        0.0986
     33 N         138.8152  151.4151  155.2067 N.ar    1  UNL1       -0.2423
     34 C         139.7816  151.0741  154.1113 C.ar    1  UNL1        0.0986
     35 C         140.1784  149.6464  153.8788 C.ar    1  UNL1        0.0181
@<TRIPOS>BOND
     1    17    18    1
     2    18    19   ar
     3    19    20   ar
     4    20    21   ar
     5    21    22   ar
     6    22    10    1
     7    10    11   ar
     8    11    12   ar
     9    12    13   ar
    10    13     1    1
    11     1     2    2
    12     2     3    1
    13     3     4    2
    14     4     5    1
    15     5    25    1
    16    25    26    2
    17    25    27   am
    18    27    29    1
    19    29    30    1
    20    30    31   ar
    21    31    32   ar
    22    32    33   ar
    23    33    34   ar
    24    34    35   ar
    25     5     6    2
    26     6     7    1
    27     7     8    2
    28     8     9    1
    29    13    14   ar
    30    14    15    1
    31    14    16   ar
    32    22    23   ar
    33    23    24    2
    34    23    18   ar
    35    16    10   ar
    36     9     1    1
    37     8     4    1
    38    35    30   ar
    39    27    28    1
@<TRIPOS>MOLECULE
*****
 35 39 0 0 0
SMALL
GASTEIGER

@<TRIPOS>ATOM
      1 C         140.9798  139.3599  161.9321 C.2     1  UNL1       -0.0153
      2 C         142.0502  138.5279  161.2902 C.2     1  UNL1       -0.0038
      3 C         141.9177  138.1126  159.8550 C.2     1  UNL1        0.0026
      4 C         140.7148  138.5294  159.0616 C.2     1  UNL1        0.0395
      5 C         140.3124  138.2730  157.6395 C.2     1  UNL1        0.1571
      6 N         138.9933  138.9466  157.4024 N.2     1  UNL1       -0.1436
      7 N         138.5806  139.6193  158.6780 N.2     1  UNL1       -0.1519
      8 C         139.6445  139.3614  159.7035 C.2     1  UNL1        0.0865
      9 C         139.7770  139.7767  161.1387 C.3     1  UNL1        0.0740
     10 C         141.3772  140.6059  166.2379 C.ar    1  UNL1        0.0677
     11 C         140.4384  139.4983  165.8612 C.ar    1  UNL1        0.0177
     12 C         140.3060  139.0830  164.4259 C.ar    1  UNL1        0.0020
     13 C         141.1123  139.7753  163.3674 C.ar    1  UNL1        0.0071
     14 C         142.0511  140.8829  163.7441 C.ar    1  UNL1        0.0588
     15 CL        142.8575  141.5751  162.6855 Cl      1  UNL1       -0.0822
     16 C         142.1836  141.2982  165.1794 C.ar    1  UNL1        0.0290
     17 C         143.3295  139.8186  170.9885 C.3     1  UNL1        0.0360
     18 C         142.4858  140.6275  170.0485 C.ar    1  UNL1        0.0347
     19 C         141.7744  141.8518  170.5437 C.ar    1  UNL1        0.0020
     20 C         140.9307  142.6608  169.6036 C.ar    1  UNL1        0.0189
     21 C         140.7983  142.2455  168.1683 C.ar    1  UNL1        0.0829
     22 N         141.5096  141.0212  167.6732 N.ar    1  UNL1       -0.2734
     23 C         142.3533  140.2122  168.6132 C.ar    1  UNL1        0.2607
     24 O         143.0646  138.9880  168.1181 O.2     1  UNL1       -0.2670
     25 C         141.0922  137.4819  156.6314 C.2     1  UNL1        0.2656
     26 O         142.4582  137.9392  156.2132 O.2     1  UNL1       -0.2684
     27 N         140.5059  136.2335  156.0417 N.am    1  UNL1       -0.2956
     28 H         139.6094  135.9334  156.3162 H       1  UNL1        0.1501
     29 C         141.2856  135.4424  155.0337 C.3     1  UNL1        0.1167
     30 C         142.0076  134.1965  155.4538 C.ar    1  UNL1        0.0005
     31 C         141.3363  132.8613  155.3258 C.ar    1  UNL1        0.0181
     32 C         142.0583  131.6154  155.7460 C.ar    1  UNL1        0.0986
     33 N         143.4517  131.7048  156.2941 N.ar    1  UNL1       -0.2423
     34 C         144.1231  133.0401  156.4221 C.ar    1  UNL1        0.0986
     35 C         143.4010  134.2859  156.0020 C.ar    1  UNL1        0.0181
@<TRIPOS>BOND
     1    17    18    1
     2    18    19   ar
     3    19    20   ar
     4    20    21   ar
     5    21    22   ar
     6    22    10    1
     7    10    11   ar
     8    11    12   ar
     9    12    13   ar
    10    13     1    1
    11     1     2    2
    12     2     3    1
    13     3     4    2
    14     4     5    1
    15     5    25    1
    16    25    26    2
    17    25    27   am
    18    27    29    1
    19    29    30    1
    20    30    31   ar
    21    31    32   ar
    22    32    33   ar
    23    33    34   ar
    24    34    35   ar
    25     5     6    2
    26     6     7    1
    27     7     8    2
    28     8     9    1
    29    13    14   ar
    30    14    15    1
    31    14    16   ar
    32    22    23   ar
    33    23    24    2
    34    23    18   ar
    35    16    10   ar
    36     9     1    1
    37     8     4    1
    38    35    30   ar
    39    27    28    1
@<TRIPOS>MOLECULE
*****
 35 39 0 0 0
SMALL
GASTEIGER

@<TRIPOS>ATOM
      1 C         142.6997  141.9810  161.7319 C.2     1  UNL1       -0.0153
      2 C         143.4885  141.0216  160.8909 C.2     1  UNL1       -0.0038
      3 C         143.7632  141.3374  159.4505 C.2     1  UNL1        0.0026
      4 C         143.2491  142.6127  158.8511 C.2     1  UNL1        0.0395
      5 C         143.3614  143.1899  157.4711 C.2     1  UNL1        0.1571
      6 N         142.6420  144.5061  157.4592 N.2     1  UNL1       -0.1436
      7 N         142.0851  144.7423  158.8318 N.2     1  UNL1       -0.1519
      8 C         142.4603  143.5722  159.6921 C.2     1  UNL1        0.0865
      9 C         142.1856  143.2563  161.1324 C.3     1  UNL1        0.0740
     10 C         141.8754  141.0335  166.0531 C.ar    1  UNL1        0.0677
     11 C         140.9691  140.5019  164.9826 C.ar    1  UNL1        0.0177
     12 C         141.2438  140.8178  163.5422 C.ar    1  UNL1        0.0020
     13 C         142.4249  141.6652  163.1723 C.ar    1  UNL1        0.0071
     14 C         143.3313  142.1968  164.2428 C.ar    1  UNL1        0.0588
     15 CL        144.5124  143.0442  163.8728 Cl      1  UNL1       -0.0822
     16 C         143.0566  141.8809  165.6832 C.ar    1  UNL1        0.0290
     17 C         142.8588  138.2210  170.3102 C.3     1  UNL1        0.0360
     18 C         142.0923  139.3114  169.6220 C.ar    1  UNL1        0.0347
     19 C         141.0511  140.0860  170.3743 C.ar    1  UNL1        0.0020
     20 C         140.2847  141.1764  169.6862 C.ar    1  UNL1        0.0189
     21 C         140.5595  141.4923  168.2457 C.ar    1  UNL1        0.0829
     22 N         141.6007  140.7177  167.4935 N.ar    1  UNL1       -0.2734
     23 C         142.3671  139.6272  168.1817 C.ar    1  UNL1        0.2607
     24 O         143.4083  138.8526  167.4294 O.2     1  UNL1       -0.2670
     25 C         144.0689  142.5613  156.3074 C.2     1  UNL1        0.2656
     26 O         143.8873  141.1004  156.0194 O.2     1  UNL1       -0.2684
     27 N         144.9580  143.3935  155.4317 N.am    1  UNL1       -0.2956
     28 H         145.0772  144.3523  155.6207 H       1  UNL1        0.1501
     29 C         145.6655  142.7649  154.2680 C.3     1  UNL1        0.1167
     30 C         147.1538  142.5816  154.3050 C.ar    1  UNL1        0.0005
     31 C         147.7888  141.8285  155.4363 C.ar    1  UNL1        0.0181
     32 C         149.2771  141.6452  155.4733 C.ar    1  UNL1        0.0986
     33 N         150.1304  142.2150  154.3792 N.ar    1  UNL1       -0.2423
     34 C         149.4955  142.9681  153.2480 C.ar    1  UNL1        0.0986
     35 C         148.0072  143.1514  153.2109 C.ar    1  UNL1        0.0181
@<TRIPOS>BOND
     1    17    18    1
     2    18    19   ar
     3    19    20   ar
     4    20    21   ar
     5    21    22   ar
     6    22    10    1
     7    10    11   ar
     8    11    12   ar
     9    12    13   ar
    10    13     1    1
    11     1     2    2
    12     2     3    1
    13     3     4    2
    14     4     5    1
    15     5    25    1
    16    25    26    2
    17    25    27   am
    18    27    29    1
    19    29    30    1
    20    30    31   ar
    21    31    32   ar
    22    32    33   ar
    23    33    34   ar
    24    34    35   ar
    25     5     6    2
    26     6     7    1
    27     7     8    2
    28     8     9    1
    29    13    14   ar
    30    14    15    1
    31    14    16   ar
    32    22    23   ar
    33    23    24    2
    34    23    18   ar
    35    16    10   ar
    36     9     1    1
    37     8     4    1
    38    35    30   ar
    39    27    28    1
