@<TRIPOS>MOLECULE
*****
 37 41 0 0 0
SMALL
GASTEIGER

@<TRIPOS>ATOM
      1 C         141.6558  140.1269  165.8697 C.3     1  UNL1        0.0980
      2 C         142.1732  139.9995  163.3269 C.2     1  UNL1        0.2475
      3 O         143.3571  140.8994  163.5227 O.2     1  UNL1       -0.2701
      4 N         141.3225  139.6132  164.5004 N.am    1  UNL1       -0.3002
      5 H         140.5454  139.0226  164.3719 H       1  UNL1        0.1498
      6 C         141.1731  138.4584  159.2190 C.ar    1  UNL1        0.0863
      7 C         140.2697  139.4514  159.8880 C.ar    1  UNL1        0.0308
      8 C         140.6030  139.9651  161.2572 C.ar    1  UNL1        0.0643
      9 CL        139.6995  140.9582  161.9263 Cl      1  UNL1       -0.0820
     10 C         141.8399  139.4857  161.9575 C.ar    1  UNL1        0.0745
     11 C         142.7433  138.4927  161.2886 C.ar    1  UNL1        0.0643
     12 CL        143.9802  138.0133  161.9889 Cl      1  UNL1       -0.0820
     13 C         142.4100  137.9790  159.9193 C.ar    1  UNL1        0.0308
     14 C         138.5304  137.2899  154.7995 C.3     1  UNL1        0.0756
     15 C         139.6251  137.4075  155.8183 C.ar    1  UNL1        0.1613
     16 N         141.0288  136.9006  155.6667 N.ar    1  UNL1       -0.2073
     17 C         141.7795  137.2326  156.9222 C.ar    1  UNL1        0.2013
     18 N         140.8398  137.9446  157.8496 N.ar    1  UNL1       -0.2083
     19 N         139.5084  138.0527  157.1673 N.ar    1  UNL1       -0.1487
     20 C         141.2269  141.5048  166.2788 C.3     1  UNL1        0.0606
     21 C         140.4220  142.3504  165.3368 C.2     1  UNL1       -0.0304
     22 C         138.9359  142.1672  165.2478 C.2     1  UNL1       -0.0038
     23 C         138.1312  143.0127  164.3059 C.2     1  UNL1        0.0495
     24 C         138.8124  144.0414  163.4529 C.2     1  UNL1        0.2317
     25 N         138.2853  145.0140  162.4397 N.2     1  UNL1       -0.0350
     26 C         139.4456  145.7982  161.9026 C.2     1  UNL1        0.3518
     27 C         139.3743  146.8803  160.8662 C.3     1  UNL1        0.1367
     28 N         140.6899  145.3103  162.5837 N.2     1  UNL1       -0.0389
     29 C         140.2985  144.2246  163.5418 C.2     1  UNL1        0.2171
     30 C         141.1033  143.3791  164.4838 C.3     1  UNL1        0.1001
     31 C         141.6029  142.0372  167.6297 C.ar    1  UNL1       -0.0148
     32 C         142.9844  141.8095  168.1678 C.ar    1  UNL1       -0.0038
     33 C         143.3603  142.3420  169.5188 C.ar    1  UNL1        0.0020
     34 C         142.3547  143.1021  170.3318 C.ar    1  UNL1        0.0296
     35 C         140.9732  143.3298  169.7937 C.ar    1  UNL1        0.1398
     36 F         139.9676  144.0899  170.6067 F       1  UNL1       -0.2042
     37 C         140.5972  142.7974  168.4428 C.ar    1  UNL1        0.0257
@<TRIPOS>BOND
     1    14    15    1
     2    15    16   ar
     3    16    17   ar
     4    17    18   ar
     5    18     6    1
     6     6     7   ar
     7     7     8   ar
     8     8     9    1
     9     8    10   ar
    10    10     2    1
    11     2     3    2
    12     2     4   am
    13     4     1    1
    14    20     1    1
    15    20    31    1
    16    31    32   ar
    17    32    33   ar
    18    33    34   ar
    19    34    35   ar
    20    35    36    1
    21    35    37   ar
    22    20    21    1
    23    21    22    2
    24    22    23    1
    25    23    24    2
    26    24    25    1
    27    25    26    2
    28    26    27    1
    29    26    28    1
    30    28    29    2
    31    29    30    1
    32    10    11   ar
    33    11    12    1
    34    11    13   ar
    35    18    19   ar
    36    19    15   ar
    37    13     6   ar
    38    37    31   ar
    39    30    21    1
    40    29    24    1
    41     4     5    1
@<TRIPOS>MOLECULE
*****
 37 41 0 0 0
SMALL
GASTEIGER

@<TRIPOS>ATOM
      1 C         141.3030  138.8285  165.4435 C.3     1  UNL1        0.0980
      2 C         142.0139  139.1812  162.9696 C.2     1  UNL1        0.2475
      3 O         143.1571  140.0411  163.4206 O.2     1  UNL1       -0.2701
      4 N         141.0868  138.5748  163.9810 N.am    1  UNL1       -0.3002
      5 H         140.3365  138.0104  163.6850 H       1  UNL1        0.1498
      6 C         141.3652  138.4202  158.5821 C.ar    1  UNL1        0.0863
      7 C         142.5973  137.8979  159.2597 C.ar    1  UNL1        0.0308
      8 C         142.8135  138.1516  160.7222 C.ar    1  UNL1        0.0643
      9 CL        144.0456  137.6293  161.3999 Cl      1  UNL1       -0.0820
     10 C         141.7976  138.9275  161.5070 C.ar    1  UNL1        0.0745
     11 C         140.5655  139.4498  160.8294 C.ar    1  UNL1        0.0643
     12 CL        139.5497  140.2257  161.6143 Cl      1  UNL1       -0.0820
     13 C         140.3493  139.1961  159.3669 C.ar    1  UNL1        0.0308
     14 C         139.1070  137.1082  153.9929 C.3     1  UNL1        0.0756
     15 C         140.1110  137.5635  155.0102 C.ar    1  UNL1        0.1613
     16 N         141.5215  137.9890  154.7278 N.ar    1  UNL1       -0.2073
     17 C         142.1629  138.3616  156.0315 C.ar    1  UNL1        0.2013
     18 N         141.1489  138.1665  157.1196 N.ar    1  UNL1       -0.2083
     19 N         139.8808  137.6732  156.4883 N.ar    1  UNL1       -0.1487
     20 C         140.6292  139.9907  166.1108 C.3     1  UNL1        0.0606
     21 C         139.9600  141.0466  165.2818 C.2     1  UNL1       -0.0304
     22 C         138.4864  140.9673  165.0133 C.2     1  UNL1       -0.0038
     23 C         137.8172  142.0232  164.1844 C.2     1  UNL1        0.0495
     24 C         138.6217  143.1585  163.6240 C.2     1  UNL1        0.2317
     25 N         138.2405  144.3372  162.7781 N.2     1  UNL1       -0.0350
     26 C         139.4786  145.1450  162.5239 C.2     1  UNL1        0.3518
     27 C         139.5567  146.4102  161.7218 C.3     1  UNL1        0.1367
     28 N         140.6249  144.4655  163.2127 N.2     1  UNL1       -0.0389
     29 C         140.0953  143.2378  163.8925 C.2     1  UNL1        0.2171
     30 C         140.7644  142.1819  164.7215 C.3     1  UNL1        0.1001
     31 C         140.6247  140.0969  167.6070 C.ar    1  UNL1       -0.0148
     32 C         139.3239  140.1866  168.3486 C.ar    1  UNL1       -0.0038
     33 C         139.3193  140.2929  169.8448 C.ar    1  UNL1        0.0020
     34 C         140.6156  140.3094  170.5995 C.ar    1  UNL1        0.0296
     35 C         141.9163  140.2197  169.8579 C.ar    1  UNL1        0.1398
     36 F         143.2125  140.2362  170.6126 F       1  UNL1       -0.2042
     37 C         141.9209  140.1134  168.3617 C.ar    1  UNL1        0.0257
@<TRIPOS>BOND
     1    14    15    1
     2    15    16   ar
     3    16    17   ar
     4    17    18   ar
     5    18     6    1
     6     6     7   ar
     7     7     8   ar
     8     8     9    1
     9     8    10   ar
    10    10     2    1
    11     2     3    2
    12     2     4   am
    13     4     1    1
    14    20     1    1
    15    20    31    1
    16    31    32   ar
    17    32    33   ar
    18    33    34   ar
    19    34    35   ar
    20    35    36    1
    21    35    37   ar
    22    20    21    1
    23    21    22    2
    24    22    23    1
    25    23    24    2
    26    24    25    1
    27    25    26    2
    28    26    27    1
    29    26    28    1
    30    28    29    2
    31    29    30    1
    32    10    11   ar
    33    11    12    1
    34    11    13   ar
    35    18    19   ar
    36    19    15   ar
    37    13     6   ar
    38    37    31   ar
    39    30    21    1
    40    29    24    1
    41     4     5    1
@<TRIPOS>MOLECULE
*****
 37 41 0 0 0
SMALL
GASTEIGER

@<TRIPOS>ATOM
      1 C         142.3936  138.9311  165.1037 C.3     1  UNL1        0.0980
      2 C         141.6064  138.0002  162.8094 C.2     1  UNL1        0.2475
      3 O         140.8435  136.9160  163.5110 O.2     1  UNL1       -0.2701
      4 N         142.3815  139.0078  163.6057 N.am    1  UNL1       -0.3002
      5 H         142.8823  139.7194  163.1452 H       1  UNL1        0.1498
      6 C         141.5703  138.2304  158.3154 C.ar    1  UNL1        0.0863
      7 C         142.8448  137.9128  159.0399 C.ar    1  UNL1        0.0308
      8 C         142.8568  137.8361  160.5379 C.ar    1  UNL1        0.0643
      9 CL        144.1313  137.5186  161.2624 Cl      1  UNL1       -0.0820
     10 C         141.5944  138.0770  161.3114 C.ar    1  UNL1        0.0745
     11 C         140.3199  138.3945  160.5869 C.ar    1  UNL1        0.0643
     12 CL        139.0575  138.6353  161.3604 Cl      1  UNL1       -0.0820
     13 C         140.3079  138.4712  159.0889 C.ar    1  UNL1        0.0308
     14 C         141.9618  136.9160  153.2164 C.3     1  UNL1        0.0756
     15 C         141.7382  137.7030  154.4737 C.ar    1  UNL1        0.1613
     16 N         141.3411  139.1475  154.5508 N.ar    1  UNL1       -0.2073
     17 C         141.2299  139.5208  155.9994 C.ar    1  UNL1        0.2013
     18 N         141.5582  138.3071  156.8174 N.ar    1  UNL1       -0.2083
     19 N         141.8724  137.1836  155.8745 N.ar    1  UNL1       -0.1487
     20 C         142.0301  140.1363  165.9193 C.3     1  UNL1        0.0606
     21 C         142.0224  141.4961  165.2859 C.2     1  UNL1       -0.0304
     22 C         143.1969  142.4123  165.4623 C.2     1  UNL1       -0.0038
     23 C         143.1891  143.7720  164.8289 C.2     1  UNL1        0.0495
     24 C         142.0069  144.2154  164.0192 C.2     1  UNL1        0.2317
     25 N         141.7164  145.4887  163.2813 N.2     1  UNL1       -0.0350
     26 C         140.3624  145.3594  162.6489 C.2     1  UNL1        0.3518
     27 C         139.6753  146.4004  161.8156 C.3     1  UNL1        0.1367
     28 N         139.8161  144.0062  162.9959 N.2     1  UNL1       -0.0389
     29 C         140.8324  143.2992  163.8428 C.2     1  UNL1        0.2171
     30 C         140.8402  141.9395  164.4762 C.3     1  UNL1        0.1001
     31 C         141.6744  139.9819  167.3683 C.ar    1  UNL1       -0.0148
     32 C         142.6846  139.4384  168.3348 C.ar    1  UNL1       -0.0038
     33 C         142.3288  139.2840  169.7838 C.ar    1  UNL1        0.0020
     34 C         140.9629  139.6730  170.2663 C.ar    1  UNL1        0.0296
     35 C         139.9527  140.2165  169.2998 C.ar    1  UNL1        0.1398
     36 F         138.5867  140.6055  169.7823 F       1  UNL1       -0.2042
     37 C         140.3084  140.3709  167.8508 C.ar    1  UNL1        0.0257
@<TRIPOS>BOND
     1    14    15    1
     2    15    16   ar
     3    16    17   ar
     4    17    18   ar
     5    18     6    1
     6     6     7   ar
     7     7     8   ar
     8     8     9    1
     9     8    10   ar
    10    10     2    1
    11     2     3    2
    12     2     4   am
    13     4     1    1
    14    20     1    1
    15    20    31    1
    16    31    32   ar
    17    32    33   ar
    18    33    34   ar
    19    34    35   ar
    20    35    36    1
    21    35    37   ar
    22    20    21    1
    23    21    22    2
    24    22    23    1
    25    23    24    2
    26    24    25    1
    27    25    26    2
    28    26    27    1
    29    26    28    1
    30    28    29    2
    31    29    30    1
    32    10    11   ar
    33    11    12    1
    34    11    13   ar
    35    18    19   ar
    36    19    15   ar
    37    13     6   ar
    38    37    31   ar
    39    30    21    1
    40    29    24    1
    41     4     5    1
@<TRIPOS>MOLECULE
*****
 37 41 0 0 0
SMALL
GASTEIGER

@<TRIPOS>ATOM
      1 C         141.1825  142.7590  165.6696 C.3     1  UNL1        0.0980
      2 C         141.8783  143.9166  163.4502 C.2     1  UNL1        0.2475
      3 O         143.1577  144.3706  164.0880 O.2     1  UNL1       -0.2701
      4 N         140.8907  143.1108  164.2409 N.am    1  UNL1       -0.3002
      5 H         140.0510  142.8128  163.8223 H       1  UNL1        0.1498
      6 C         141.0028  144.9718  159.1642 C.ar    1  UNL1        0.0863
      7 C         142.0924  143.9932  159.4880 C.ar    1  UNL1        0.0308
      8 C         142.3843  143.6415  160.9167 C.ar    1  UNL1        0.0643
      9 CL        143.4740  142.6628  161.2406 Cl      1  UNL1       -0.0820
     10 C         141.5864  144.2684  162.0214 C.ar    1  UNL1        0.0745
     11 C         140.4968  145.2470  161.6976 C.ar    1  UNL1        0.0643
     12 CL        139.6990  145.8738  162.8023 Cl      1  UNL1       -0.0820
     13 C         140.2050  145.5987  160.2689 C.ar    1  UNL1        0.0308
     14 C         139.2200  147.4802  154.8734 C.3     1  UNL1        0.0756
     15 C         139.8915  146.4765  155.7632 C.ar    1  UNL1        0.1613
     16 N         140.6321  145.2531  155.3107 N.ar    1  UNL1       -0.2073
     17 C         141.1386  144.5406  156.5296 C.ar    1  UNL1        0.2013
     18 N         140.7109  145.3236  157.7354 N.ar    1  UNL1       -0.2083
     19 N         139.9402  146.5201  157.2618 N.ar    1  UNL1       -0.1487
     20 C         142.1571  141.6642  165.9884 C.3     1  UNL1        0.0606
     21 C         142.7824  140.8704  164.8798 C.2     1  UNL1       -0.0304
     22 C         144.2743  140.8409  164.7275 C.2     1  UNL1       -0.0038
     23 C         144.8995  140.0471  163.6189 C.2     1  UNL1        0.0495
     24 C         144.0327  139.2828  162.6626 C.2     1  UNL1        0.2317
     25 N         144.3612  138.4181  161.4817 N.2     1  UNL1       -0.0350
     26 C         143.0723  137.9131  160.9042 C.2     1  UNL1        0.3518
     27 C         142.9328  137.0135  159.7120 C.3     1  UNL1        0.1367
     28 N         141.9472  138.4658  161.7281 N.2     1  UNL1       -0.0389
     29 C         142.5408  139.3122  162.8149 C.2     1  UNL1        0.2171
     30 C         141.9156  140.1060  163.9235 C.3     1  UNL1        0.1001
     31 C         142.5064  141.3632  167.4157 C.ar    1  UNL1       -0.0148
     32 C         143.1780  142.4059  168.2594 C.ar    1  UNL1       -0.0038
     33 C         143.5273  142.1048  169.6868 C.ar    1  UNL1        0.0020
     34 C         143.2050  140.7612  170.2705 C.ar    1  UNL1        0.0296
     35 C         142.5334  139.7185  169.4268 C.ar    1  UNL1        0.1398
     36 F         142.2111  138.3749  170.0104 F       1  UNL1       -0.2042
     37 C         142.1841  140.0195  167.9995 C.ar    1  UNL1        0.0257
@<TRIPOS>BOND
     1    14    15    1
     2    15    16   ar
     3    16    17   ar
     4    17    18   ar
     5    18     6    1
     6     6     7   ar
     7     7     8   ar
     8     8     9    1
     9     8    10   ar
    10    10     2    1
    11     2     3    2
    12     2     4   am
    13     4     1    1
    14    20     1    1
    15    20    31    1
    16    31    32   ar
    17    32    33   ar
    18    33    34   ar
    19    34    35   ar
    20    35    36    1
    21    35    37   ar
    22    20    21    1
    23    21    22    2
    24    22    23    1
    25    23    24    2
    26    24    25    1
    27    25    26    2
    28    26    27    1
    29    26    28    1
    30    28    29    2
    31    29    30    1
    32    10    11   ar
    33    11    12    1
    34    11    13   ar
    35    18    19   ar
    36    19    15   ar
    37    13     6   ar
    38    37    31   ar
    39    30    21    1
    40    29    24    1
    41     4     5    1
@<TRIPOS>MOLECULE
*****
 37 41 0 0 0
SMALL
GASTEIGER

@<TRIPOS>ATOM
      1 C         139.9581  141.1253  161.9485 C.3     1  UNL1        0.0980
      2 C         139.2886  142.9743  160.2506 C.2     1  UNL1        0.2475
      3 O         138.0667  143.2799  161.0653 O.2     1  UNL1       -0.2701
      4 N         140.2342  141.8970  160.6922 N.am    1  UNL1       -0.3002
      5 H         141.0362  141.6964  160.1575 H       1  UNL1        0.1498
      6 C         140.1172  145.2894  156.4819 C.ar    1  UNL1        0.0863
      7 C         140.6112  145.8033  157.8016 C.ar    1  UNL1        0.0308
      8 C         140.3350  145.0316  159.0579 C.ar    1  UNL1        0.0643
      9 CL        140.8290  145.5455  160.3777 Cl      1  UNL1       -0.0820
     10 C         139.5648  143.7460  158.9943 C.ar    1  UNL1        0.0745
     11 C         139.0708  143.2321  157.6745 C.ar    1  UNL1        0.0643
     12 CL        138.3006  141.9465  157.6110 Cl      1  UNL1       -0.0820
     13 C         139.3470  144.0038  156.4183 C.ar    1  UNL1        0.0308
     14 C         140.1861  149.1327  152.8617 C.3     1  UNL1        0.0756
     15 C         140.4250  147.8277  153.5616 C.ar    1  UNL1        0.1613
     16 N         141.2118  146.6695  153.0231 N.ar    1  UNL1       -0.2073
     17 C         141.1922  145.5778  154.0515 C.ar    1  UNL1        0.2013
     18 N         140.3934  146.0611  155.2256 N.ar    1  UNL1       -0.2083
     19 N         139.9193  147.4516  154.9227 N.ar    1  UNL1       -0.1487
     20 C         140.6096  141.5319  163.2370 C.3     1  UNL1        0.0606
     21 C         140.0999  140.9889  164.5391 C.2     1  UNL1       -0.0304
     22 C         138.8727  140.1267  164.5632 C.2     1  UNL1       -0.0038
     23 C         138.3631  139.5838  165.8653 C.2     1  UNL1        0.0495
     24 C         139.0806  139.9032  167.1433 C.2     1  UNL1        0.2317
     25 N         138.8154  139.5139  168.5675 N.2     1  UNL1       -0.0350
     26 C         139.8787  140.1357  169.4236 C.2     1  UNL1        0.3518
     27 C         139.9987  140.0067  170.9132 C.3     1  UNL1        0.1367
     28 N         140.8009  140.9092  168.5284 N.2     1  UNL1       -0.0389
     29 C         140.3077  140.7654  167.1192 C.2     1  UNL1        0.2171
     30 C         140.8173  141.3083  165.8171 C.3     1  UNL1        0.1001
     31 C         141.7707  142.4814  163.2234 C.ar    1  UNL1       -0.0148
     32 C         141.5419  143.9489  163.4329 C.ar    1  UNL1       -0.0038
     33 C         142.7032  144.8984  163.4193 C.ar    1  UNL1        0.0020
     34 C         144.0930  144.3804  163.1962 C.ar    1  UNL1        0.0296
     35 C         144.3218  142.9128  162.9867 C.ar    1  UNL1        0.1398
     36 F         145.7116  142.3947  162.7636 F       1  UNL1       -0.2042
     37 C         143.1606  141.9633  163.0003 C.ar    1  UNL1        0.0257
@<TRIPOS>BOND
     1    14    15    1
     2    15    16   ar
     3    16    17   ar
     4    17    18   ar
     5    18     6    1
     6     6     7   ar
     7     7     8   ar
     8     8     9    1
     9     8    10   ar
    10    10     2    1
    11     2     3    2
    12     2     4   am
    13     4     1    1
    14    20     1    1
    15    20    31    1
    16    31    32   ar
    17    32    33   ar
    18    33    34   ar
    19    34    35   ar
    20    35    36    1
    21    35    37   ar
    22    20    21    1
    23    21    22    2
    24    22    23    1
    25    23    24    2
    26    24    25    1
    27    25    26    2
    28    26    27    1
    29    26    28    1
    30    28    29    2
    31    29    30    1
    32    10    11   ar
    33    11    12    1
    34    11    13   ar
    35    18    19   ar
    36    19    15   ar
    37    13     6   ar
    38    37    31   ar
    39    30    21    1
    40    29    24    1
    41     4     5    1
@<TRIPOS>MOLECULE
*****
 37 41 0 0 0
SMALL
GASTEIGER

@<TRIPOS>ATOM
      1 C         139.9212  143.4126  165.1094 C.3     1  UNL1        0.0980
      2 C         141.1766  144.3588  163.0409 C.2     1  UNL1        0.2475
      3 O         142.2273  144.9359  163.9425 O.2     1  UNL1       -0.2701
      4 N         140.0236  143.5971  163.6243 N.am    1  UNL1       -0.3002
      5 H         139.3339  143.2183  163.0325 H       1  UNL1        0.1498
      6 C         141.4834  144.9123  158.5856 C.ar    1  UNL1        0.0863
      7 C         140.5450  145.7672  159.3847 C.ar    1  UNL1        0.0308
      8 C         140.4428  145.5827  160.8698 C.ar    1  UNL1        0.0643
      9 CL        139.5043  146.4375  161.6689 Cl      1  UNL1       -0.0820
     10 C         141.2789  144.5433  161.5557 C.ar    1  UNL1        0.0745
     11 C         142.2173  143.6884  160.7566 C.ar    1  UNL1        0.0643
     12 CL        143.0534  142.6490  161.4426 Cl      1  UNL1       -0.0820
     13 C         142.3196  143.8729  159.2716 C.ar    1  UNL1        0.0308
     14 C         140.6828  146.6924  153.6793 C.3     1  UNL1        0.0756
     15 C         141.2177  145.9150  154.8453 C.ar    1  UNL1        0.1613
     16 N         142.2687  144.8464  154.7850 N.ar    1  UNL1       -0.2073
     17 C         142.4961  144.3408  156.1787 C.ar    1  UNL1        0.2013
     18 N         141.5857  145.0968  157.1005 N.ar    1  UNL1       -0.2083
     19 N         140.7957  146.0698  156.2764 N.ar    1  UNL1       -0.1487
     20 C         140.5748  142.2326  165.7653 C.3     1  UNL1        0.0606
     21 C         141.5184  141.3673  164.9836 C.2     1  UNL1       -0.0304
     22 C         142.9760  141.3377  165.3366 C.2     1  UNL1       -0.0038
     23 C         143.9195  140.4725  164.5549 C.2     1  UNL1        0.0495
     24 C         143.4055  139.6369  163.4202 C.2     1  UNL1        0.2317
     25 N         144.0918  138.6938  162.4770 N.2     1  UNL1       -0.0350
     26 C         143.0584  138.1405  161.5411 C.2     1  UNL1        0.3518
     27 C         143.3064  137.1585  160.4346 C.3     1  UNL1        0.1367
     28 N         141.7334  138.7417  161.9059 N.2     1  UNL1       -0.0389
     29 C         141.9479  139.6665  163.0672 C.2     1  UNL1        0.2171
     30 C         141.0044  140.5317  163.8489 C.3     1  UNL1        0.1001
     31 C         140.2849  141.9178  167.2030 C.ar    1  UNL1       -0.0148
     32 C         139.8777  140.5296  167.5994 C.ar    1  UNL1       -0.0038
     33 C         139.5877  140.2148  169.0371 C.ar    1  UNL1        0.0020
     34 C         139.7050  141.2882  170.0783 C.ar    1  UNL1        0.0296
     35 C         140.1122  142.6763  169.6818 C.ar    1  UNL1        0.1398
     36 F         140.2294  143.7497  170.7230 F       1  UNL1       -0.2042
     37 C         140.4021  142.9911  168.2442 C.ar    1  UNL1        0.0257
@<TRIPOS>BOND
     1    14    15    1
     2    15    16   ar
     3    16    17   ar
     4    17    18   ar
     5    18     6    1
     6     6     7   ar
     7     7     8   ar
     8     8     9    1
     9     8    10   ar
    10    10     2    1
    11     2     3    2
    12     2     4   am
    13     4     1    1
    14    20     1    1
    15    20    31    1
    16    31    32   ar
    17    32    33   ar
    18    33    34   ar
    19    34    35   ar
    20    35    36    1
    21    35    37   ar
    22    20    21    1
    23    21    22    2
    24    22    23    1
    25    23    24    2
    26    24    25    1
    27    25    26    2
    28    26    27    1
    29    26    28    1
    30    28    29    2
    31    29    30    1
    32    10    11   ar
    33    11    12    1
    34    11    13   ar
    35    18    19   ar
    36    19    15   ar
    37    13     6   ar
    38    37    31   ar
    39    30    21    1
    40    29    24    1
    41     4     5    1
@<TRIPOS>MOLECULE
*****
 37 41 0 0 0
SMALL
GASTEIGER

@<TRIPOS>ATOM
      1 C         142.3517  139.2753  164.9896 C.3     1  UNL1        0.0980
      2 C         141.6187  138.1360  162.7728 C.2     1  UNL1        0.2475
      3 O         141.1244  136.9495  163.5460 O.2     1  UNL1       -0.2701
      4 N         142.2323  139.2989  163.4946 N.am    1  UNL1       -0.3002
      5 H         142.5567  140.0776  162.9871 H       1  UNL1        0.1498
      6 C         141.2606  138.2069  158.2876 C.ar    1  UNL1        0.0863
      7 C         140.0586  138.4859  159.1404 C.ar    1  UNL1        0.0308
      8 C         140.1780  138.4623  160.6355 C.ar    1  UNL1        0.0643
      9 CL        138.9760  138.7414  161.4884 Cl      1  UNL1       -0.0820
     10 C         141.4993  138.1596  161.2777 C.ar    1  UNL1        0.0745
     11 C         142.7013  137.8805  160.4248 C.ar    1  UNL1        0.0643
     12 CL        144.0226  137.5778  161.0670 Cl      1  UNL1       -0.0820
     13 C         142.5819  137.9042  158.9298 C.ar    1  UNL1        0.0308
     14 C         142.1230  137.2584  153.1653 C.3     1  UNL1        0.0756
     15 C         141.5376  137.7945  154.4381 C.ar    1  UNL1        0.1613
     16 N         140.3774  138.7392  154.5456 N.ar    1  UNL1       -0.2073
     17 C         140.1324  139.0086  156.0007 C.ar    1  UNL1        0.2013
     18 N         141.1412  138.2305  156.7925 N.ar    1  UNL1       -0.2083
     19 N         142.0097  137.4801  155.8267 N.ar    1  UNL1       -0.1487
     20 C         141.8901  140.4519  165.7975 C.3     1  UNL1        0.0606
     21 C         141.0040  141.4889  165.1735 C.2     1  UNL1       -0.0304
     22 C         139.5323  141.4910  165.4637 C.2     1  UNL1       -0.0038
     23 C         138.6463  142.5280  164.8397 C.2     1  UNL1        0.0495
     24 C         139.2319  143.5630  163.9254 C.2     1  UNL1        0.2317
     25 N         138.6121  144.7014  163.1704 N.2     1  UNL1       -0.0350
     26 C         139.7007  145.4029  162.4136 C.2     1  UNL1        0.3518
     27 C         139.5272  146.5992  161.5254 C.3     1  UNL1        0.1367
     28 N         140.9933  144.6980  162.7008 N.2     1  UNL1       -0.0389
     29 C         140.7035  143.5609  163.6352 C.2     1  UNL1        0.2171
     30 C         141.5895  142.5239  164.2592 C.3     1  UNL1        0.1001
     31 C         142.3146  140.5914  167.2294 C.ar    1  UNL1       -0.0148
     32 C         142.7668  141.9229  167.7513 C.ar    1  UNL1       -0.0038
     33 C         143.1913  142.0624  169.1833 C.ar    1  UNL1        0.0020
     34 C         143.1635  140.8703  170.0932 C.ar    1  UNL1        0.0296
     35 C         142.7113  139.5387  169.5713 C.ar    1  UNL1        0.1398
     36 F         142.6836  138.3466  170.4813 F       1  UNL1       -0.2042
     37 C         142.2869  139.3992  168.1395 C.ar    1  UNL1        0.0257
@<TRIPOS>BOND
     1    14    15    1
     2    15    16   ar
     3    16    17   ar
     4    17    18   ar
     5    18     6    1
     6     6     7   ar
     7     7     8   ar
     8     8     9    1
     9     8    10   ar
    10    10     2    1
    11     2     3    2
    12     2     4   am
    13     4     1    1
    14    20     1    1
    15    20    31    1
    16    31    32   ar
    17    32    33   ar
    18    33    34   ar
    19    34    35   ar
    20    35    36    1
    21    35    37   ar
    22    20    21    1
    23    21    22    2
    24    22    23    1
    25    23    24    2
    26    24    25    1
    27    25    26    2
    28    26    27    1
    29    26    28    1
    30    28    29    2
    31    29    30    1
    32    10    11   ar
    33    11    12    1
    34    11    13   ar
    35    18    19   ar
    36    19    15   ar
    37    13     6   ar
    38    37    31   ar
    39    30    21    1
    40    29    24    1
    41     4     5    1
@<TRIPOS>MOLECULE
*****
 37 41 0 0 0
SMALL
GASTEIGER

@<TRIPOS>ATOM
      1 C         141.0199  145.4428  158.4988 C.3     1  UNL1        0.0980
      2 C         140.0426  144.9443  160.8538 C.2     1  UNL1        0.2475
      3 O         139.3537  146.2767  160.8500 O.2     1  UNL1       -0.2701
      4 N         140.8757  144.5274  159.6782 N.am    1  UNL1       -0.3002
      5 H         141.3279  143.6529  159.6808 H       1  UNL1        0.1498
      6 C         139.6102  142.1978  164.3922 C.ar    1  UNL1        0.0863
      7 C         138.8343  141.9310  163.1365 C.ar    1  UNL1        0.0308
      8 C         138.9785  142.8465  161.9571 C.ar    1  UNL1        0.0643
      9 CL        138.2026  142.5798  160.7013 Cl      1  UNL1       -0.0820
     10 C         139.8985  144.0288  162.0333 C.ar    1  UNL1        0.0745
     11 C         140.6744  144.2956  163.2890 C.ar    1  UNL1        0.0643
     12 CL        141.5944  145.4779  163.3653 Cl      1  UNL1       -0.0820
     13 C         140.5302  143.3801  164.4685 C.ar    1  UNL1        0.0308
     14 C         139.9769  140.1813  169.2584 C.3     1  UNL1        0.0756
     15 C         139.6346  140.3554  167.8084 C.ar    1  UNL1        0.1613
     16 N         138.8539  139.3916  166.9649 N.ar    1  UNL1       -0.2073
     17 C         138.7497  139.9644  165.5825 C.ar    1  UNL1        0.2013
     18 N         139.4661  141.2823  165.5717 N.ar    1  UNL1       -0.2083
     19 N         140.0130  141.5239  166.9473 N.ar    1  UNL1       -0.1487
     20 C         140.1856  145.2223  157.2718 C.3     1  UNL1        0.0606
     21 C         139.5567  143.8833  157.0232 C.2     1  UNL1       -0.0304
     22 C         140.3015  142.6287  157.3710 C.2     1  UNL1       -0.0038
     23 C         139.6726  141.2898  157.1224 C.2     1  UNL1        0.0495
     24 C         138.2989  141.2056  156.5259 C.2     1  UNL1        0.2317
     25 N         137.4294  140.0364  156.1693 N.2     1  UNL1       -0.0350
     26 C         136.1473  140.5685  155.6011 C.2     1  UNL1        0.3518
     27 C         134.9910  139.7469  155.1131 C.3     1  UNL1        0.1367
     28 N         136.2243  142.0666  155.6065 N.2     1  UNL1       -0.0389
     29 C         137.5541  142.4603  156.1780 C.2     1  UNL1        0.2171
     30 C         138.1830  143.7991  156.4267 C.3     1  UNL1        0.1001
     31 C         139.9802  146.3407  156.2936 C.ar    1  UNL1       -0.0148
     32 C         140.6583  146.3013  154.9562 C.ar    1  UNL1       -0.0038
     33 C         140.4528  147.4198  153.9780 C.ar    1  UNL1        0.0020
     34 C         139.5693  148.5775  154.3371 C.ar    1  UNL1        0.0296
     35 C         138.8912  148.6169  155.6745 C.ar    1  UNL1        0.1398
     36 F         138.0077  149.7746  156.0337 F       1  UNL1       -0.2042
     37 C         139.0966  147.4985  156.6528 C.ar    1  UNL1        0.0257
@<TRIPOS>BOND
     1    14    15    1
     2    15    16   ar
     3    16    17   ar
     4    17    18   ar
     5    18     6    1
     6     6     7   ar
     7     7     8   ar
     8     8     9    1
     9     8    10   ar
    10    10     2    1
    11     2     3    2
    12     2     4   am
    13     4     1    1
    14    20     1    1
    15    20    31    1
    16    31    32   ar
    17    32    33   ar
    18    33    34   ar
    19    34    35   ar
    20    35    36    1
    21    35    37   ar
    22    20    21    1
    23    21    22    2
    24    22    23    1
    25    23    24    2
    26    24    25    1
    27    25    26    2
    28    26    27    1
    29    26    28    1
    30    28    29    2
    31    29    30    1
    32    10    11   ar
    33    11    12    1
    34    11    13   ar
    35    18    19   ar
    36    19    15   ar
    37    13     6   ar
    38    37    31   ar
    39    30    21    1
    40    29    24    1
    41     4     5    1
@<TRIPOS>MOLECULE
*****
 37 41 0 0 0
SMALL
GASTEIGER

@<TRIPOS>ATOM
      1 C         140.9020  142.7482  164.4789 C.3     1  UNL1        0.0980
      2 C         139.1372  142.3832  162.6075 C.2     1  UNL1        0.2475
      3 O         138.0607  142.8819  163.5253 O.2     1  UNL1       -0.2701
      4 N         140.5578  142.3163  163.0843 N.am    1  UNL1       -0.3002
      5 H         141.2644  141.9890  162.4819 H       1  UNL1        0.1498
      6 C         138.1049  141.0876  158.4235 C.ar    1  UNL1        0.0863
      7 C         137.7998  140.1876  159.5841 C.ar    1  UNL1        0.0308
      8 C         138.1439  140.6195  160.9787 C.ar    1  UNL1        0.0643
      9 CL        137.8388  139.7196  162.1394 Cl      1  UNL1       -0.0820
     10 C         138.7931  141.9513  161.2128 C.ar    1  UNL1        0.0745
     11 C         139.0982  142.8513  160.0522 C.ar    1  UNL1        0.0643
     12 CL        139.7474  144.1831  160.2862 Cl      1  UNL1       -0.0820
     13 C         138.7541  142.4194  158.6576 C.ar    1  UNL1        0.0308
     14 C         135.3651  139.7852  154.1016 C.3     1  UNL1        0.0756
     15 C         136.5015  140.0571  155.0423 C.ar    1  UNL1        0.1613
     16 N         137.9612  139.9251  154.7230 N.ar    1  UNL1       -0.2073
     17 C         138.7395  140.2951  155.9507 C.ar    1  UNL1        0.2013
     18 N         137.7608  140.6557  157.0288 N.ar    1  UNL1       -0.2083
     19 N         136.3777  140.5085  156.4673 N.ar    1  UNL1       -0.1487
     20 C         141.5150  141.7704  165.4371 C.3     1  UNL1        0.0606
     21 C         140.8778  141.5302  166.7737 C.2     1  UNL1       -0.0304
     22 C         141.3221  142.3198  167.9691 C.2     1  UNL1       -0.0038
     23 C         140.6850  142.0796  169.3056 C.2     1  UNL1        0.0495
     24 C         139.6036  141.0498  169.4467 C.2     1  UNL1        0.2317
     25 N         138.7972  140.5965  170.6276 N.2     1  UNL1       -0.0350
     26 C         137.8545  139.5267  170.1620 C.2     1  UNL1        0.3518
     27 C         136.8623  138.7934  171.0151 C.3     1  UNL1        0.1367
     28 N         138.0783  139.3188  168.6934 N.2     1  UNL1       -0.0389
     29 C         139.1592  140.2602  168.2514 C.2     1  UNL1        0.2171
     30 C         139.7964  140.5004  166.9148 C.3     1  UNL1        0.1001
     31 C         142.7650  141.0328  165.0587 C.ar    1  UNL1       -0.0148
     32 C         142.8664  139.5557  165.2999 C.ar    1  UNL1       -0.0038
     33 C         144.1166  138.8181  164.9215 C.ar    1  UNL1        0.0020
     34 C         145.2653  139.5575  164.3020 C.ar    1  UNL1        0.0296
     35 C         145.1638  141.0345  164.0608 C.ar    1  UNL1        0.1398
     36 F         146.3125  141.7739  163.4413 F       1  UNL1       -0.2042
     37 C         143.9138  141.7721  164.4392 C.ar    1  UNL1        0.0257
@<TRIPOS>BOND
     1    14    15    1
     2    15    16   ar
     3    16    17   ar
     4    17    18   ar
     5    18     6    1
     6     6     7   ar
     7     7     8   ar
     8     8     9    1
     9     8    10   ar
    10    10     2    1
    11     2     3    2
    12     2     4   am
    13     4     1    1
    14    20     1    1
    15    20    31    1
    16    31    32   ar
    17    32    33   ar
    18    33    34   ar
    19    34    35   ar
    20    35    36    1
    21    35    37   ar
    22    20    21    1
    23    21    22    2
    24    22    23    1
    25    23    24    2
    26    24    25    1
    27    25    26    2
    28    26    27    1
    29    26    28    1
    30    28    29    2
    31    29    30    1
    32    10    11   ar
    33    11    12    1
    34    11    13   ar
    35    18    19   ar
    36    19    15   ar
    37    13     6   ar
    38    37    31   ar
    39    30    21    1
    40    29    24    1
    41     4     5    1
