@<TRIPOS>MOLECULE
*****
 32 36 0 0 0
SMALL
GASTEIGER

@<TRIPOS>ATOM
      1 O         140.8479  136.9986  162.8408 O.2     1  UNL1       -0.2668
      2 C         140.3807  138.3973  163.1153 C.2     1  UNL1        0.2806
      3 N         140.2831  139.3891  161.9941 N.am    1  UNL1       -0.2999
      4 H         139.9765  140.3071  162.1743 H       1  UNL1        0.1498
      5 C         140.0110  138.8043  164.5109 C.ar    1  UNL1        0.2014
      6 C         138.7455  138.2910  165.1315 C.ar    1  UNL1        0.0843
      7 C         138.3758  138.6980  166.5271 C.ar    1  UNL1        0.2018
      8 O         137.1103  138.1847  167.1476 O.2     1  UNL1       -0.2864
      9 C         139.2716  139.6182  167.3021 C.ar    1  UNL1        0.0737
     10 C         138.9019  140.0252  168.6977 C.ar    1  UNL1        0.0085
     11 C         139.7977  140.9454  169.4727 C.ar    1  UNL1        0.0299
     12 C         141.0632  141.4587  168.8522 C.ar    1  UNL1        0.1432
     13 F         141.9590  142.3790  169.6273 F       1  UNL1       -0.2041
     14 C         141.4329  141.0518  167.4566 C.ar    1  UNL1        0.0672
     15 C         140.5371  140.1315  166.6816 C.ar    1  UNL1        0.1508
     16 O         140.9068  139.7245  165.2859 O.2     1  UNL1       -0.4486
     17 C         140.6528  138.9821  160.5986 C.3     1  UNL1        0.0747
     18 C         139.5845  138.5694  159.6298 C.3     1  UNL1        0.0369
     19 C         139.9541  138.1625  158.2342 C.3     1  UNL1        0.0741
     20 N         141.3922  138.1683  157.8073 N.3     1  UNL1       -0.2688
     21 C         142.4604  138.5810  158.7760 C.3     1  UNL1        0.0741
     22 C         142.0907  138.9879  160.1717 C.3     1  UNL1        0.0369
     23 C         141.7618  137.7613  156.4117 C.3     1  UNL1        0.0992
     24 C         142.3211  136.3939  156.1525 C.ar    1  UNL1       -0.0030
     25 C         142.0864  135.7259  154.8301 C.ar    1  UNL1       -0.0012
     26 C         142.6458  134.3584  154.5709 C.ar    1  UNL1        0.0220
     27 C         143.4398  133.6590  155.6340 C.ar    1  UNL1        0.1190
     28 N         144.1104  132.3176  155.6668 N.ar    1  UNL1       -0.2042
     29 C         144.7596  132.1566  157.0095 C.ar    1  UNL1        0.2851
     30 O         144.4902  133.3985  157.8065 O.2     1  UNL1       -0.4312
     31 C         143.6745  134.3270  156.9563 C.ar    1  UNL1        0.1646
     32 C         143.1152  135.6944  157.2156 C.ar    1  UNL1        0.0362
@<TRIPOS>BOND
     1     1     2    2
     2     2     3   am
     3     3    17    1
     4    17    18    1
     5    18    19    1
     6    19    20    1
     7    20    23    1
     8    23    24    1
     9    24    25   ar
    10    25    26   ar
    11    26    27   ar
    12    27    28   ar
    13    28    29   ar
    14    29    30   ar
    15    30    31   ar
    16    31    32   ar
    17    20    21    1
    18    21    22    1
    19     2     5    1
    20     5     6   ar
    21     6     7   ar
    22     7     8    2
    23     7     9   ar
    24     9    10   ar
    25    10    11   ar
    26    11    12   ar
    27    12    13    1
    28    12    14   ar
    29    14    15   ar
    30    15    16   ar
    31    22    17    1
    32    16     5   ar
    33    32    24   ar
    34    15     9   ar
    35    31    27   ar
    36     3     4    1
@<TRIPOS>MOLECULE
*****
 32 36 0 0 0
SMALL
GASTEIGER

@<TRIPOS>ATOM
      1 O         142.3433  141.1407  163.2322 O.2     1  UNL1       -0.2668
      2 C         141.5641  140.1064  163.9894 C.2     1  UNL1        0.2806
      3 N         141.1666  138.8259  163.3170 N.am    1  UNL1       -0.2999
      4 H         140.6552  138.1471  163.8140 H       1  UNL1        0.1498
      5 C         141.1825  140.3528  165.4190 C.ar    1  UNL1        0.2014
      6 C         139.9912  139.6571  166.0078 C.ar    1  UNL1        0.0843
      7 C         139.6095  139.9034  167.4374 C.ar    1  UNL1        0.2018
      8 O         138.4182  139.2076  168.0261 O.2     1  UNL1       -0.2864
      9 C         140.4192  140.8454  168.2782 C.ar    1  UNL1        0.0737
     10 C         140.0376  141.0917  169.7078 C.ar    1  UNL1        0.0085
     11 C         140.8473  142.0337  170.5485 C.ar    1  UNL1        0.0299
     12 C         142.0387  142.7294  169.9597 C.ar    1  UNL1        0.1432
     13 F         142.8484  143.6715  170.8006 F       1  UNL1       -0.2041
     14 C         142.4203  142.4832  168.5302 C.ar    1  UNL1        0.0672
     15 C         141.6106  141.5411  167.6894 C.ar    1  UNL1        0.1508
     16 O         141.9922  141.2948  166.2598 O.2     1  UNL1       -0.4486
     17 C         141.5482  138.5795  161.8875 C.3     1  UNL1        0.0747
     18 C         142.8879  137.9897  161.5598 C.3     1  UNL1        0.0369
     19 C         143.2695  137.7433  160.1302 C.3     1  UNL1        0.0741
     20 N         142.3113  138.0868  159.0283 N.3     1  UNL1       -0.2688
     21 C         140.9717  138.6766  159.3560 C.3     1  UNL1        0.0741
     22 C         140.5901  138.9229  160.7857 C.3     1  UNL1        0.0369
     23 C         142.6929  137.8404  157.5988 C.3     1  UNL1        0.0992
     24 C         142.4162  136.5081  156.9675 C.ar    1  UNL1       -0.0030
     25 C         141.4167  136.3987  155.8545 C.ar    1  UNL1       -0.0012
     26 C         141.1400  135.0664  155.2233 C.ar    1  UNL1        0.0220
     27 C         141.8627  133.8435  155.7051 C.ar    1  UNL1        0.1190
     28 N         141.7988  132.4067  155.2791 N.ar    1  UNL1       -0.2042
     29 C         142.7588  131.6281  156.1290 C.ar    1  UNL1        0.2851
     30 O         143.4161  132.5838  157.0801 O.2     1  UNL1       -0.4312
     31 C         142.8622  133.9530  156.8182 C.ar    1  UNL1        0.1646
     32 C         143.1390  135.2853  157.4494 C.ar    1  UNL1        0.0362
@<TRIPOS>BOND
     1     1     2    2
     2     2     3   am
     3     3    17    1
     4    17    18    1
     5    18    19    1
     6    19    20    1
     7    20    23    1
     8    23    24    1
     9    24    25   ar
    10    25    26   ar
    11    26    27   ar
    12    27    28   ar
    13    28    29   ar
    14    29    30   ar
    15    30    31   ar
    16    31    32   ar
    17    20    21    1
    18    21    22    1
    19     2     5    1
    20     5     6   ar
    21     6     7   ar
    22     7     8    2
    23     7     9   ar
    24     9    10   ar
    25    10    11   ar
    26    11    12   ar
    27    12    13    1
    28    12    14   ar
    29    14    15   ar
    30    15    16   ar
    31    22    17    1
    32    16     5   ar
    33    32    24   ar
    34    15     9   ar
    35    31    27   ar
    36     3     4    1
@<TRIPOS>MOLECULE
*****
 32 36 0 0 0
SMALL
GASTEIGER

@<TRIPOS>ATOM
      1 O         143.9734  138.8241  159.9489 O.2     1  UNL1       -0.2668
      2 C         143.2860  140.0575  159.4427 C.2     1  UNL1        0.2806
      3 N         142.6604  140.0614  158.0793 N.am    1  UNL1       -0.2999
      4 H         142.2093  140.8709  157.7471 H       1  UNL1        0.1498
      5 C         143.2242  141.2870  160.2997 C.ar    1  UNL1        0.2014
      6 C         142.5426  142.5225  159.7909 C.ar    1  UNL1        0.0843
      7 C         142.4807  143.7519  160.6479 C.ar    1  UNL1        0.2018
      8 O         141.7990  144.9874  160.1390 O.2     1  UNL1       -0.2864
      9 C         143.1006  143.7460  162.0138 C.ar    1  UNL1        0.0737
     10 C         143.0388  144.9755  162.8708 C.ar    1  UNL1        0.0085
     11 C         143.6587  144.9696  164.2367 C.ar    1  UNL1        0.0299
     12 C         144.3404  143.7341  164.7456 C.ar    1  UNL1        0.1432
     13 F         144.9603  143.7282  166.1115 F       1  UNL1       -0.2041
     14 C         144.4022  142.5046  163.8886 C.ar    1  UNL1        0.0672
     15 C         143.7823  142.5106  162.5227 C.ar    1  UNL1        0.1508
     16 O         143.8441  141.2810  161.6656 O.2     1  UNL1       -0.4486
     17 C         142.7222  138.8320  157.2223 C.3     1  UNL1        0.0747
     18 C         143.7670  138.7153  156.1523 C.3     1  UNL1        0.0369
     19 C         143.8288  137.4858  155.2953 C.3     1  UNL1        0.0741
     20 N         142.8457  136.3730  155.5081 N.3     1  UNL1       -0.2688
     21 C         141.8009  136.4897  156.5781 C.3     1  UNL1        0.0741
     22 C         141.7392  137.7192  157.4351 C.3     1  UNL1        0.0369
     23 C         142.9075  135.1435  154.6511 C.3     1  UNL1        0.0992
     24 C         142.9411  133.7860  155.2882 C.ar    1  UNL1       -0.0030
     25 C         141.9041  132.7633  154.9297 C.ar    1  UNL1       -0.0012
     26 C         141.9378  131.4058  155.5668 C.ar    1  UNL1        0.0220
     27 C         143.0085  131.0709  156.5625 C.ar    1  UNL1        0.1190
     28 N         143.2944  129.8257  157.3483 N.ar    1  UNL1       -0.2042
     29 C         144.5082  130.0788  158.1925 C.ar    1  UNL1        0.2851
     30 O         144.9725  131.4804  157.9285 O.2     1  UNL1       -0.4312
     31 C         144.0455  132.0936  156.9211 C.ar    1  UNL1        0.1646
     32 C         144.0118  133.4512  156.2839 C.ar    1  UNL1        0.0362
@<TRIPOS>BOND
     1     1     2    2
     2     2     3   am
     3     3    17    1
     4    17    18    1
     5    18    19    1
     6    19    20    1
     7    20    23    1
     8    23    24    1
     9    24    25   ar
    10    25    26   ar
    11    26    27   ar
    12    27    28   ar
    13    28    29   ar
    14    29    30   ar
    15    30    31   ar
    16    31    32   ar
    17    20    21    1
    18    21    22    1
    19     2     5    1
    20     5     6   ar
    21     6     7   ar
    22     7     8    2
    23     7     9   ar
    24     9    10   ar
    25    10    11   ar
    26    11    12   ar
    27    12    13    1
    28    12    14   ar
    29    14    15   ar
    30    15    16   ar
    31    22    17    1
    32    16     5   ar
    33    32    24   ar
    34    15     9   ar
    35    31    27   ar
    36     3     4    1
@<TRIPOS>MOLECULE
*****
 32 36 0 0 0
SMALL
GASTEIGER

@<TRIPOS>ATOM
      1 O         142.6415  138.4481  163.2794 O.2     1  UNL1       -0.2668
      2 C         141.8894  139.7229  163.5226 C.2     1  UNL1        0.2806
      3 N         141.2665  140.4573  162.3726 N.am    1  UNL1       -0.2999
      4 H         140.7729  141.2940  162.5322 H       1  UNL1        0.1498
      5 C         141.7601  140.2633  164.9160 C.ar    1  UNL1        0.2014
      6 C         142.7690  141.2435  165.4369 C.ar    1  UNL1        0.0843
      7 C         142.6397  141.7839  166.8301 C.ar    1  UNL1        0.2018
      8 O         143.6487  142.7640  167.3510 O.2     1  UNL1       -0.2864
      9 C         141.5014  141.3442  167.7026 C.ar    1  UNL1        0.0737
     10 C         141.3722  141.8846  169.0958 C.ar    1  UNL1        0.0085
     11 C         140.2339  141.4448  169.9681 C.ar    1  UNL1        0.0299
     12 C         139.2250  140.4647  169.4472 C.ar    1  UNL1        0.1432
     13 F         138.0867  140.0250  170.3197 F       1  UNL1       -0.2041
     14 C         139.3543  139.9243  168.0540 C.ar    1  UNL1        0.0672
     15 C         140.4925  140.3640  167.1816 C.ar    1  UNL1        0.1508
     16 O         140.6218  139.8236  165.7883 O.2     1  UNL1       -0.4486
     17 C         141.3958  139.9170  160.9793 C.3     1  UNL1        0.0747
     18 C         142.6380  140.1863  160.1827 C.3     1  UNL1        0.0369
     19 C         142.7673  139.6459  158.7894 C.3     1  UNL1        0.0741
     20 N         141.6544  138.8362  158.1927 N.3     1  UNL1       -0.2688
     21 C         140.4123  138.5669  158.9893 C.3     1  UNL1        0.0741
     22 C         140.2830  139.1073  160.3826 C.3     1  UNL1        0.0369
     23 C         141.7837  138.2959  156.7994 C.3     1  UNL1        0.0992
     24 C         141.9944  136.8269  156.5812 C.ar    1  UNL1       -0.0030
     25 C         141.1753  136.0954  155.5595 C.ar    1  UNL1       -0.0012
     26 C         141.3859  134.6263  155.3413 C.ar    1  UNL1        0.0220
     27 C         142.4157  133.8888  156.1449 C.ar    1  UNL1        0.1190
     28 N         142.8437  132.4512  156.1506 N.ar    1  UNL1       -0.2042
     29 C         143.9273  132.2942  157.1758 C.ar    1  UNL1        0.2851
     30 O         144.1690  133.6348  157.8038 O.2     1  UNL1       -0.4312
     31 C         143.2347  134.6204  157.1666 C.ar    1  UNL1        0.1646
     32 C         143.0241  136.0894  157.3847 C.ar    1  UNL1        0.0362
@<TRIPOS>BOND
     1     1     2    2
     2     2     3   am
     3     3    17    1
     4    17    18    1
     5    18    19    1
     6    19    20    1
     7    20    23    1
     8    23    24    1
     9    24    25   ar
    10    25    26   ar
    11    26    27   ar
    12    27    28   ar
    13    28    29   ar
    14    29    30   ar
    15    30    31   ar
    16    31    32   ar
    17    20    21    1
    18    21    22    1
    19     2     5    1
    20     5     6   ar
    21     6     7   ar
    22     7     8    2
    23     7     9   ar
    24     9    10   ar
    25    10    11   ar
    26    11    12   ar
    27    12    13    1
    28    12    14   ar
    29    14    15   ar
    30    15    16   ar
    31    22    17    1
    32    16     5   ar
    33    32    24   ar
    34    15     9   ar
    35    31    27   ar
    36     3     4    1
@<TRIPOS>MOLECULE
*****
 32 36 0 0 0
SMALL
GASTEIGER

@<TRIPOS>ATOM
      1 O         138.1314  143.6653  161.3469 O.2     1  UNL1       -0.2668
      2 C         139.4197  142.9643  161.6612 C.2     1  UNL1        0.2806
      3 N         140.4754  142.8260  160.6047 N.am    1  UNL1       -0.2999
      4 H         141.3210  142.3659  160.8110 H       1  UNL1        0.1498
      5 C         139.6523  142.4016  163.0322 C.ar    1  UNL1        0.2014
      6 C         140.7990  142.8980  163.8620 C.ar    1  UNL1        0.0843
      7 C         141.0316  142.3353  165.2328 C.ar    1  UNL1        0.2018
      8 O         142.1783  142.8318  166.0627 O.2     1  UNL1       -0.2864
      9 C         140.1175  141.2762  165.7739 C.ar    1  UNL1        0.0737
     10 C         140.3501  140.7135  167.1447 C.ar    1  UNL1        0.0085
     11 C         139.4360  139.6544  167.6857 C.ar    1  UNL1        0.0299
     12 C         138.2893  139.1580  166.8559 C.ar    1  UNL1        0.1432
     13 F         137.3752  138.0989  167.3970 F       1  UNL1       -0.2041
     14 C         138.0567  139.7207  165.4851 C.ar    1  UNL1        0.0672
     15 C         138.9708  140.7798  164.9441 C.ar    1  UNL1        0.1508
     16 O         138.7382  141.3425  163.5732 O.2     1  UNL1       -0.4486
     17 C         140.2429  143.3887  159.2339 C.3     1  UNL1        0.0747
     18 C         140.9017  144.6740  158.8290 C.3     1  UNL1        0.0369
     19 C         140.6691  145.2367  157.4582 C.3     1  UNL1        0.0741
     20 N         139.7778  144.5140  156.4921 N.3     1  UNL1       -0.2688
     21 C         139.1190  143.2287  156.8969 C.3     1  UNL1        0.0741
     22 C         139.3515  142.6660  158.2679 C.3     1  UNL1        0.0369
     23 C         139.5452  145.0767  155.1212 C.3     1  UNL1        0.0992
     24 C         139.5987  146.5593  154.9001 C.ar    1  UNL1       -0.0030
     25 C         140.4829  147.1265  153.8294 C.ar    1  UNL1       -0.0012
     26 C         140.5364  148.6091  153.6082 C.ar    1  UNL1        0.0220
     27 C         139.7056  149.5246  154.4577 C.ar    1  UNL1        0.1190
     28 N         139.5520  151.0166  154.4719 N.ar    1  UNL1       -0.2042
     29 C         138.5729  151.3716  155.5514 C.ar    1  UNL1        0.2851
     30 O         138.1213  150.0990  156.2044 O.2     1  UNL1       -0.4312
     31 C         138.8214  148.9574  155.5284 C.ar    1  UNL1        0.1646
     32 C         138.7680  147.4748  155.7496 C.ar    1  UNL1        0.0362
@<TRIPOS>BOND
     1     1     2    2
     2     2     3   am
     3     3    17    1
     4    17    18    1
     5    18    19    1
     6    19    20    1
     7    20    23    1
     8    23    24    1
     9    24    25   ar
    10    25    26   ar
    11    26    27   ar
    12    27    28   ar
    13    28    29   ar
    14    29    30   ar
    15    30    31   ar
    16    31    32   ar
    17    20    21    1
    18    21    22    1
    19     2     5    1
    20     5     6   ar
    21     6     7   ar
    22     7     8    2
    23     7     9   ar
    24     9    10   ar
    25    10    11   ar
    26    11    12   ar
    27    12    13    1
    28    12    14   ar
    29    14    15   ar
    30    15    16   ar
    31    22    17    1
    32    16     5   ar
    33    32    24   ar
    34    15     9   ar
    35    31    27   ar
    36     3     4    1
@<TRIPOS>MOLECULE
*****
 32 36 0 0 0
SMALL
GASTEIGER

@<TRIPOS>ATOM
      1 O         144.4676  136.8867  155.8018 O.2     1  UNL1       -0.2668
      2 C         143.3629  136.2351  156.5795 C.2     1  UNL1        0.2806
      3 N         142.4402  137.0711  157.4160 N.am    1  UNL1       -0.2999
      4 H         141.7152  136.6433  157.9265 H       1  UNL1        0.1498
      5 C         143.1808  134.7473  156.5208 C.ar    1  UNL1        0.2014
      6 C         142.0806  134.1586  155.6882 C.ar    1  UNL1        0.0843
      7 C         141.8985  132.6709  155.6295 C.ar    1  UNL1        0.2018
      8 O         140.7983  132.0823  154.7969 O.2     1  UNL1       -0.2864
      9 C         142.8167  131.7717  156.4032 C.ar    1  UNL1        0.0737
     10 C         142.6346  130.2840  156.3444 C.ar    1  UNL1        0.0085
     11 C         143.5526  129.3849  157.1181 C.ar    1  UNL1        0.0299
     12 C         144.6529  129.9736  157.9506 C.ar    1  UNL1        0.1432
     13 F         145.5710  129.0744  158.7244 F       1  UNL1       -0.2041
     14 C         144.8350  131.4613  158.0094 C.ar    1  UNL1        0.0672
     15 C         143.9169  132.3604  157.2357 C.ar    1  UNL1        0.1508
     16 O         144.0989  133.8482  157.2945 O.2     1  UNL1       -0.4486
     17 C         142.6223  138.5588  157.4748 C.3     1  UNL1        0.0747
     18 C         143.3691  139.1784  158.6187 C.3     1  UNL1        0.0369
     19 C         143.5511  140.6661  158.6775 C.3     1  UNL1        0.0741
     20 N         142.9863  141.5343  157.5924 N.3     1  UNL1       -0.2688
     21 C         142.2395  140.9147  156.4485 C.3     1  UNL1        0.0741
     22 C         142.0575  139.4269  156.3898 C.3     1  UNL1        0.0369
     23 C         143.1683  143.0220  157.6512 C.3     1  UNL1        0.0992
     24 C         142.2106  143.8642  158.4408 C.ar    1  UNL1       -0.0030
     25 C         141.2408  144.7622  157.7316 C.ar    1  UNL1       -0.0012
     26 C         140.2831  145.6044  158.5213 C.ar    1  UNL1        0.0220
     27 C         140.2952  145.5485  160.0201 C.ar    1  UNL1        0.1190
     28 N         139.4763  146.2578  161.0576 N.ar    1  UNL1       -0.2042
     29 C         139.9401  145.7981  162.4081 C.ar    1  UNL1        0.2851
     30 O         141.0455  144.8048  162.2052 O.2     1  UNL1       -0.4312
     31 C         141.2650  144.6506  160.7294 C.ar    1  UNL1        0.1646
     32 C         142.2227  143.8084  159.9397 C.ar    1  UNL1        0.0362
@<TRIPOS>BOND
     1     1     2    2
     2     2     3   am
     3     3    17    1
     4    17    18    1
     5    18    19    1
     6    19    20    1
     7    20    23    1
     8    23    24    1
     9    24    25   ar
    10    25    26   ar
    11    26    27   ar
    12    27    28   ar
    13    28    29   ar
    14    29    30   ar
    15    30    31   ar
    16    31    32   ar
    17    20    21    1
    18    21    22    1
    19     2     5    1
    20     5     6   ar
    21     6     7   ar
    22     7     8    2
    23     7     9   ar
    24     9    10   ar
    25    10    11   ar
    26    11    12   ar
    27    12    13    1
    28    12    14   ar
    29    14    15   ar
    30    15    16   ar
    31    22    17    1
    32    16     5   ar
    33    32    24   ar
    34    15     9   ar
    35    31    27   ar
    36     3     4    1
@<TRIPOS>MOLECULE
*****
 32 36 0 0 0
SMALL
GASTEIGER

@<TRIPOS>ATOM
      1 O         139.0332  137.9921  162.7799 O.2     1  UNL1       -0.2668
      2 C         139.8617  138.9490  163.5848 C.2     1  UNL1        0.2806
      3 N         141.0234  139.6535  162.9490 N.am    1  UNL1       -0.2999
      4 H         141.5672  140.2815  163.4773 H       1  UNL1        0.1498
      5 C         139.5287  139.2014  165.0254 C.ar    1  UNL1        0.2014
      6 C         138.3962  138.4619  165.6741 C.ar    1  UNL1        0.0843
      7 C         138.0631  138.7143  167.1146 C.ar    1  UNL1        0.2018
      8 O         136.9307  137.9748  167.7633 O.2     1  UNL1       -0.2864
      9 C         138.8625  139.7062  167.9066 C.ar    1  UNL1        0.0737
     10 C         138.5294  139.9586  169.3472 C.ar    1  UNL1        0.0085
     11 C         139.3287  140.9505  170.1391 C.ar    1  UNL1        0.0299
     12 C         140.4611  141.6900  169.4905 C.ar    1  UNL1        0.1432
     13 F         141.2605  142.6819  170.2825 F       1  UNL1       -0.2041
     14 C         140.7942  141.4376  168.0499 C.ar    1  UNL1        0.0672
     15 C         139.9949  140.4457  167.2580 C.ar    1  UNL1        0.1508
     16 O         140.3280  140.1933  165.8173 O.2     1  UNL1       -0.4486
     17 C         141.3565  139.4011  161.5084 C.3     1  UNL1        0.0747
     18 C         142.3467  138.3352  161.1432 C.3     1  UNL1        0.0369
     19 C         142.6798  138.0829  159.7026 C.3     1  UNL1        0.0741
     20 N         142.0227  138.8964  158.6272 N.3     1  UNL1       -0.2688
     21 C         141.0325  139.9622  158.9924 C.3     1  UNL1        0.0741
     22 C         140.6994  140.2146  160.4331 C.3     1  UNL1        0.0369
     23 C         142.3558  138.6440  157.1866 C.3     1  UNL1        0.0992
     24 C         143.5547  139.2997  156.5680 C.ar    1  UNL1       -0.0030
     25 C         144.0770  138.8152  155.2480 C.ar    1  UNL1       -0.0012
     26 C         145.2759  139.4709  154.6294 C.ar    1  UNL1        0.0220
     27 C         145.9525  140.6111  155.3308 C.ar    1  UNL1        0.1190
     28 N         147.1438  141.4475  154.9684 N.ar    1  UNL1       -0.2042
     29 C         147.3577  142.4490  156.0645 C.ar    1  UNL1        0.2851
     30 O         146.2987  142.2315  157.1043 O.2     1  UNL1       -0.4312
     31 C         145.4303  141.0956  156.6508 C.ar    1  UNL1        0.1646
     32 C         144.2314  140.4399  157.2694 C.ar    1  UNL1        0.0362
@<TRIPOS>BOND
     1     1     2    2
     2     2     3   am
     3     3    17    1
     4    17    18    1
     5    18    19    1
     6    19    20    1
     7    20    23    1
     8    23    24    1
     9    24    25   ar
    10    25    26   ar
    11    26    27   ar
    12    27    28   ar
    13    28    29   ar
    14    29    30   ar
    15    30    31   ar
    16    31    32   ar
    17    20    21    1
    18    21    22    1
    19     2     5    1
    20     5     6   ar
    21     6     7   ar
    22     7     8    2
    23     7     9   ar
    24     9    10   ar
    25    10    11   ar
    26    11    12   ar
    27    12    13    1
    28    12    14   ar
    29    14    15   ar
    30    15    16   ar
    31    22    17    1
    32    16     5   ar
    33    32    24   ar
    34    15     9   ar
    35    31    27   ar
    36     3     4    1
@<TRIPOS>MOLECULE
*****
 32 36 0 0 0
SMALL
GASTEIGER

@<TRIPOS>ATOM
      1 O         143.7107  139.3584  158.1013 O.2     1  UNL1       -0.2668
      2 C         142.9207  138.1151  158.3843 C.2     1  UNL1        0.2806
      3 N         142.4121  137.8488  159.7701 N.am    1  UNL1       -0.2999
      4 H         141.8936  137.0328  159.9558 H       1  UNL1        0.1498
      5 C         142.6392  137.1380  157.2814 C.ar    1  UNL1        0.2014
      6 C         142.1133  137.6253  155.9639 C.ar    1  UNL1        0.0843
      7 C         141.8319  136.6483  154.8611 C.ar    1  UNL1        0.2018
      8 O         141.3060  137.1355  153.5435 O.2     1  UNL1       -0.2864
      9 C         142.0763  135.1839  155.0758 C.ar    1  UNL1        0.0737
     10 C         141.7948  134.2069  153.9730 C.ar    1  UNL1        0.0085
     11 C         142.0393  132.7427  154.1878 C.ar    1  UNL1        0.0299
     12 C         142.5651  132.2554  155.5054 C.ar    1  UNL1        0.1432
     13 F         142.8095  130.7911  155.7201 F       1  UNL1       -0.2041
     14 C         142.8466  133.2324  156.6082 C.ar    1  UNL1        0.0672
     15 C         142.6022  134.6967  156.3934 C.ar    1  UNL1        0.1508
     16 O         142.8836  135.6738  157.4962 O.2     1  UNL1       -0.4486
     17 C         142.6935  138.8258  160.8729 C.3     1  UNL1        0.0747
     18 C         141.6086  139.7402  161.3598 C.3     1  UNL1        0.0369
     19 C         141.8901  140.7172  162.4626 C.3     1  UNL1        0.0741
     20 N         143.2564  140.7799  163.0786 N.3     1  UNL1       -0.2688
     21 C         144.3412  139.8655  162.5916 C.3     1  UNL1        0.0741
     22 C         144.0598  138.8885  161.4888 C.3     1  UNL1        0.0369
     23 C         143.5378  141.7568  164.1814 C.3     1  UNL1        0.0992
     24 C         143.2361  141.3894  165.6040 C.ar    1  UNL1       -0.0030
     25 C         142.8897  139.9729  165.9555 C.ar    1  UNL1       -0.0012
     26 C         142.5880  139.6054  167.3781 C.ar    1  UNL1        0.0220
     27 C         142.6328  140.6544  168.4494 C.ar    1  UNL1        0.1190
     28 N         142.3847  140.5910  169.9273 N.ar    1  UNL1       -0.2042
     29 C         142.5778  141.9682  170.4893 C.ar    1  UNL1        0.2851
     30 O         142.9453  142.8829  169.3587 O.2     1  UNL1       -0.4312
     31 C         142.9792  142.0709  168.0979 C.ar    1  UNL1        0.1646
     32 C         143.2809  142.4384  166.6753 C.ar    1  UNL1        0.0362
@<TRIPOS>BOND
     1     1     2    2
     2     2     3   am
     3     3    17    1
     4    17    18    1
     5    18    19    1
     6    19    20    1
     7    20    23    1
     8    23    24    1
     9    24    25   ar
    10    25    26   ar
    11    26    27   ar
    12    27    28   ar
    13    28    29   ar
    14    29    30   ar
    15    30    31   ar
    16    31    32   ar
    17    20    21    1
    18    21    22    1
    19     2     5    1
    20     5     6   ar
    21     6     7   ar
    22     7     8    2
    23     7     9   ar
    24     9    10   ar
    25    10    11   ar
    26    11    12   ar
    27    12    13    1
    28    12    14   ar
    29    14    15   ar
    30    15    16   ar
    31    22    17    1
    32    16     5   ar
    33    32    24   ar
    34    15     9   ar
    35    31    27   ar
    36     3     4    1
@<TRIPOS>MOLECULE
*****
 32 36 0 0 0
SMALL
GASTEIGER

@<TRIPOS>ATOM
      1 O         144.2143  140.2532  163.7862 O.2     1  UNL1       -0.2668
      2 C         142.8581  139.9442  164.3474 C.2     1  UNL1        0.2806
      3 N         141.7792  139.4119  163.4516 N.am    1  UNL1       -0.2999
      4 H         140.8890  139.2090  163.8200 H       1  UNL1        0.1498
      5 C         142.5807  140.1676  165.8046 C.ar    1  UNL1        0.2014
      6 C         142.9911  139.1357  166.8130 C.ar    1  UNL1        0.0843
      7 C         142.7138  139.3591  168.2701 C.ar    1  UNL1        0.2018
      8 O         143.1242  138.3272  169.2784 O.2     1  UNL1       -0.2864
      9 C         142.0260  140.6143  168.7189 C.ar    1  UNL1        0.0737
     10 C         141.7486  140.8376  170.1759 C.ar    1  UNL1        0.0085
     11 C         141.0608  142.0928  170.6247 C.ar    1  UNL1        0.0299
     12 C         140.6504  143.1247  169.6163 C.ar    1  UNL1        0.1432
     13 F         139.9625  144.3799  170.0651 F       1  UNL1       -0.2041
     14 C         140.9277  142.9014  168.1592 C.ar    1  UNL1        0.0672
     15 C         141.6155  141.6462  167.7105 C.ar    1  UNL1        0.1508
     16 O         141.8929  141.4228  166.2533 O.2     1  UNL1       -0.4486
     17 C         142.0565  139.1885  161.9945 C.3     1  UNL1        0.0747
     18 C         142.6736  137.9000  161.5374 C.3     1  UNL1        0.0369
     19 C         142.9509  137.6766  160.0803 C.3     1  UNL1        0.0741
     20 N         142.6111  138.7417  159.0803 N.3     1  UNL1       -0.2688
     21 C         141.9940  140.0302  159.5374 C.3     1  UNL1        0.0741
     22 C         141.7167  140.2536  160.9945 C.3     1  UNL1        0.0369
     23 C         142.8884  138.5184  157.6232 C.3     1  UNL1        0.0992
     24 C         142.4021  137.2692  156.9500 C.ar    1  UNL1       -0.0030
     25 C         141.1866  137.3149  156.0723 C.ar    1  UNL1       -0.0012
     26 C         140.7003  136.0658  155.3991 C.ar    1  UNL1        0.0220
     27 C         141.4294  134.7710  155.6037 C.ar    1  UNL1        0.1190
     28 N         141.1871  133.3882  155.0752 N.ar    1  UNL1       -0.2042
     29 C         142.2529  132.4880  155.6264 C.ar    1  UNL1        0.2851
     30 O         143.1538  133.3143  156.4955 O.2     1  UNL1       -0.4312
     31 C         142.6448  134.7253  156.4815 C.ar    1  UNL1        0.1646
     32 C         143.1312  135.9745  157.1546 C.ar    1  UNL1        0.0362
@<TRIPOS>BOND
     1     1     2    2
     2     2     3   am
     3     3    17    1
     4    17    18    1
     5    18    19    1
     6    19    20    1
     7    20    23    1
     8    23    24    1
     9    24    25   ar
    10    25    26   ar
    11    26    27   ar
    12    27    28   ar
    13    28    29   ar
    14    29    30   ar
    15    30    31   ar
    16    31    32   ar
    17    20    21    1
    18    21    22    1
    19     2     5    1
    20     5     6   ar
    21     6     7   ar
    22     7     8    2
    23     7     9   ar
    24     9    10   ar
    25    10    11   ar
    26    11    12   ar
    27    12    13    1
    28    12    14   ar
    29    14    15   ar
    30    15    16   ar
    31    22    17    1
    32    16     5   ar
    33    32    24   ar
    34    15     9   ar
    35    31    27   ar
    36     3     4    1
