@<TRIPOS>MOLECULE
*****
 30 33 0 0 0
SMALL
GASTEIGER

@<TRIPOS>ATOM
      1 C         140.3077  140.9354  169.8196 C.3     1  UNL1        0.1153
      2 C         139.0664  140.1673  169.4746 C.3     1  UNL1        0.0297
      3 C         138.8576  139.6687  168.0754 C.3     1  UNL1        0.0060
      4 C         139.8900  139.9381  167.0212 C.3     1  UNL1        0.0384
      5 C         138.7052  139.1604  166.5300 C.3     1  UNL1        0.0036
      6 C         141.1313  140.7062  167.3662 C.3     1  UNL1        0.0073
      7 C         141.3402  141.2049  168.7654 C.3     1  UNL1        0.0297
      8 C         141.9673  140.8178  166.1257 C.3     1  UNL1        0.0198
      9 C         141.2425  140.1186  165.0140 C.3     1  UNL1        0.0978
     10 C         139.9587  139.5749  165.5675 C.3     1  UNL1        0.1801
     11 N         141.7181  139.9863  163.5975 N.3     1  UNL1       -0.2697
     12 C         141.4714  141.0943  162.6170 C.3     1  UNL1        0.0722
     13 C         141.9469  140.9620  161.2005 C.3     1  UNL1        0.0187
     14 C         142.6691  139.7217  160.7646 C.3     1  UNL1        0.0183
     15 C         142.9158  138.6137  161.7452 C.3     1  UNL1        0.0670
     16 N         143.6380  137.3733  161.3092 N.3     1  UNL1       -0.3211
     17 C         142.4403  138.7460  163.1616 C.3     1  UNL1        0.0878
     18 H         143.8864  137.4534  160.3231 H       1  UNL1        0.1189
     19 H         143.0331  136.5630  161.4427 H       1  UNL1        0.1189
     20 C         141.7749  142.1696  171.5729 C.3     1  UNL1        0.1740
     21 O         140.5165  141.4341  171.2188 O.3     1  UNL1       -0.3536
     22 O         138.9251  138.8035  164.8017 O.3     1  UNL1       -0.4778
     23 C         138.6365  139.1516  163.3715 C.ar    1  UNL1        0.1385
     24 C         137.9757  140.4556  163.0355 C.ar    1  UNL1        0.0376
     25 C         137.6871  140.8036  161.6052 C.ar    1  UNL1        0.0134
     26 C         138.0593  139.8476  160.5109 C.ar    1  UNL1        0.0686
     27 C         138.7202  138.5436  160.8469 C.ar    1  UNL1        0.0134
     28 C         139.0087  138.1956  162.2771 C.ar    1  UNL1        0.0376
     29 C         137.7708  140.1957  159.0807 C.1     1  UNL1        0.1004
     30 N         137.4822  140.5438  157.6505 N.1     1  UNL1       -0.1908
@<TRIPOS>BOND
     1    20    21    1
     2     1    21    1
     3     1     2    1
     4     2     3    1
     5     3     4    1
     6     4     5    1
     7     4     6    1
     8     6     7    1
     9     6     8    1
    10     8     9    1
    11     9    11    1
    12    11    12    1
    13    12    13    1
    14    13    14    1
    15    14    15    1
    16    15    16    1
    17    15    17    1
    18     9    10    1
    19    10    22    1
    20    22    23    1
    21    23    24   ar
    22    24    25   ar
    23    25    26   ar
    24    26    29    1
    25    29    30    3
    26    26    27   ar
    27    27    28   ar
    28     7     1    1
    29    17    11    1
    30    28    23   ar
    31    10     4    1
    32    16    18    1
    33    16    19    1
@<TRIPOS>MOLECULE
*****
 30 33 0 0 0
SMALL
GASTEIGER

@<TRIPOS>ATOM
      1 C         140.2744  144.5908  159.2282 C.3     1  UNL1        0.1153
      2 C         141.1941  145.1779  160.2576 C.3     1  UNL1        0.0297
      3 C         141.4464  144.4462  161.5424 C.3     1  UNL1        0.0060
      4 C         140.7791  143.1273  161.7980 C.3     1  UNL1        0.0384
      5 C         141.6686  143.5875  162.9147 C.3     1  UNL1        0.0036
      6 C         139.8594  142.5402  160.7687 C.3     1  UNL1        0.0073
      7 C         139.6071  143.2720  159.4838 C.3     1  UNL1        0.0297
      8 C         139.3473  141.2328  161.2964 C.3     1  UNL1        0.0198
      9 C         139.9505  141.0119  162.6519 C.3     1  UNL1        0.0978
     10 C         140.8354  142.1828  162.9619 C.3     1  UNL1        0.1801
     11 N         139.7109  139.8280  163.5414 N.3     1  UNL1       -0.2697
     12 C         140.4504  138.5457  163.2986 C.3     1  UNL1        0.0722
     13 C         140.2108  137.3619  164.1879 C.3     1  UNL1        0.0187
     14 C         139.2318  137.4602  165.3201 C.3     1  UNL1        0.0183
     15 C         138.4923  138.7425  165.5628 C.3     1  UNL1        0.0670
     16 N         137.5132  138.8409  166.6950 N.3     1  UNL1       -0.3211
     17 C         138.7318  139.9264  164.6735 C.3     1  UNL1        0.0878
     18 H         137.4763  137.9503  167.1909 H       1  UNL1        0.1189
     19 H         136.5885  139.0633  166.3265 H       1  UNL1        0.1189
     20 C         141.1704  145.9053  157.1742 C.3     1  UNL1        0.1740
     21 O         140.0221  145.3225  157.9434 O.3     1  UNL1       -0.3536
     22 O         141.6359  142.3754  164.2157 O.3     1  UNL1       -0.4778
     23 C         142.3113  141.2023  164.8620 C.ar    1  UNL1        0.1385
     24 C         141.8484  140.7157  166.2032 C.ar    1  UNL1        0.0376
     25 C         142.5239  139.5425  166.8495 C.ar    1  UNL1        0.0134
     26 C         143.6621  138.8560  166.1544 C.ar    1  UNL1        0.0686
     27 C         144.1250  139.3426  164.8132 C.ar    1  UNL1        0.0134
     28 C         143.4496  140.5157  164.1670 C.ar    1  UNL1        0.0376
     29 C         144.3375  137.6829  166.8007 C.1     1  UNL1        0.1004
     30 N         145.0128  136.5097  167.4469 N.1     1  UNL1       -0.1908
@<TRIPOS>BOND
     1    20    21    1
     2     1    21    1
     3     1     2    1
     4     2     3    1
     5     3     4    1
     6     4     5    1
     7     4     6    1
     8     6     7    1
     9     6     8    1
    10     8     9    1
    11     9    11    1
    12    11    12    1
    13    12    13    1
    14    13    14    1
    15    14    15    1
    16    15    16    1
    17    15    17    1
    18     9    10    1
    19    10    22    1
    20    22    23    1
    21    23    24   ar
    22    24    25   ar
    23    25    26   ar
    24    26    29    1
    25    29    30    3
    26    26    27   ar
    27    27    28   ar
    28     7     1    1
    29    17    11    1
    30    28    23   ar
    31    10     4    1
    32    16    18    1
    33    16    19    1
@<TRIPOS>MOLECULE
*****
 30 33 0 0 0
SMALL
GASTEIGER

@<TRIPOS>ATOM
      1 C         140.0225  141.5057  169.4934 C.3     1  UNL1        0.1153
      2 C         140.5176  142.7627  168.8418 C.3     1  UNL1        0.0297
      3 C         140.5910  142.8537  167.3463 C.3     1  UNL1        0.0060
      4 C         140.1691  141.6876  166.5025 C.3     1  UNL1        0.0384
      5 C         140.6405  142.8728  165.7133 C.3     1  UNL1        0.0036
      6 C         139.6739  140.4305  167.1540 C.3     1  UNL1        0.0073
      7 C         139.6006  140.3396  168.6495 C.3     1  UNL1        0.0297
      8 C         139.3294  139.4516  166.0709 C.3     1  UNL1        0.0198
      9 C         139.6118  140.1037  164.7499 C.3     1  UNL1        0.0978
     10 C         140.1307  141.4856  165.0166 C.3     1  UNL1        0.1801
     11 N         139.4105  139.4830  163.3992 N.3     1  UNL1       -0.2697
     12 C         140.4680  138.5916  162.8184 C.3     1  UNL1        0.0722
     13 C         140.2668  137.9709  161.4678 C.3     1  UNL1        0.0187
     14 C         139.0081  138.2415  160.6980 C.3     1  UNL1        0.0183
     15 C         137.9507  139.1328  161.2789 C.3     1  UNL1        0.0670
     16 N         136.6920  139.4033  160.5090 N.3     1  UNL1       -0.3211
     17 C         138.1519  139.7535  162.6295 C.3     1  UNL1        0.0878
     18 H         136.7237  138.9050  159.6196 H       1  UNL1        0.1189
     19 H         136.6087  140.4049  160.3348 H       1  UNL1        0.1189
     20 C         141.2099  141.3761  171.8005 C.3     1  UNL1        0.1740
     21 O         139.9491  141.4148  170.9888 O.3     1  UNL1       -0.3536
     22 O         140.5395  142.4893  163.9796 O.3     1  UNL1       -0.4778
     23 C         141.3140  142.0483  162.7732 C.ar    1  UNL1        0.1385
     24 C         140.6983  142.1478  161.4090 C.ar    1  UNL1        0.0376
     25 C         141.4730  141.7067  160.2025 C.ar    1  UNL1        0.0134
     26 C         142.8633  141.1662  160.3603 C.ar    1  UNL1        0.0686
     27 C         143.4790  141.0668  161.7245 C.ar    1  UNL1        0.0134
     28 C         142.7044  141.5078  162.9309 C.ar    1  UNL1        0.0376
     29 C         143.6379  140.7252  159.1539 C.1     1  UNL1        0.1004
     30 N         144.4125  140.2841  157.9475 N.1     1  UNL1       -0.1908
@<TRIPOS>BOND
     1    20    21    1
     2     1    21    1
     3     1     2    1
     4     2     3    1
     5     3     4    1
     6     4     5    1
     7     4     6    1
     8     6     7    1
     9     6     8    1
    10     8     9    1
    11     9    11    1
    12    11    12    1
    13    12    13    1
    14    13    14    1
    15    14    15    1
    16    15    16    1
    17    15    17    1
    18     9    10    1
    19    10    22    1
    20    22    23    1
    21    23    24   ar
    22    24    25   ar
    23    25    26   ar
    24    26    29    1
    25    29    30    3
    26    26    27   ar
    27    27    28   ar
    28     7     1    1
    29    17    11    1
    30    28    23   ar
    31    10     4    1
    32    16    18    1
    33    16    19    1
@<TRIPOS>MOLECULE
*****
 30 33 0 0 0
SMALL
GASTEIGER

@<TRIPOS>ATOM
      1 C         139.4297  140.0329  168.3156 C.3     1  UNL1        0.1153
      2 C         138.4878  139.2619  167.4390 C.3     1  UNL1        0.0297
      3 C         138.3183  139.6468  165.9992 C.3     1  UNL1        0.0060
      4 C         139.0907  140.8028  165.4360 C.3     1  UNL1        0.0384
      5 C         138.1904  140.1290  164.4433 C.3     1  UNL1        0.0036
      6 C         140.0325  141.5737  166.3126 C.3     1  UNL1        0.0073
      7 C         140.2020  141.1888  167.7524 C.3     1  UNL1        0.0297
      8 C         140.6547  142.6581  165.4836 C.3     1  UNL1        0.0198
      9 C         140.0973  142.5573  164.0947 C.3     1  UNL1        0.0978
     10 C         139.1307  141.4106  164.0653 C.3     1  UNL1        0.1801
     11 N         140.4454  143.4470  162.9382 N.3     1  UNL1       -0.2697
     12 C         141.6522  143.1483  162.0989 C.3     1  UNL1        0.0722
     13 C         142.0003  144.0379  160.9425 C.3     1  UNL1        0.0187
     14 C         141.1416  145.2261  160.6253 C.3     1  UNL1        0.0183
     15 C         139.9348  145.5247  161.4646 C.3     1  UNL1        0.0670
     16 N         139.0760  146.7130  161.1473 N.3     1  UNL1       -0.3211
     17 C         139.5867  144.6352  162.6210 C.3     1  UNL1        0.0878
     18 H         139.4569  147.2011  160.3367 H       1  UNL1        0.1189
     19 H         139.0603  147.3447  161.9481 H       1  UNL1        0.1189
     20 C         140.7130  140.2431  170.5648 C.3     1  UNL1        0.1740
     21 O         139.5991  139.6479  169.7555 O.3     1  UNL1       -0.3536
     22 O         138.3425  140.9523  162.8742 O.3     1  UNL1       -0.4778
     23 C         138.9533  141.0047  161.5052 C.ar    1  UNL1        0.1385
     24 C         140.0790  140.0791  161.1502 C.ar    1  UNL1        0.0376
     25 C         140.6898  140.1316  159.7811 C.ar    1  UNL1        0.0134
     26 C         140.1748  141.1097  158.7671 C.ar    1  UNL1        0.0686
     27 C         139.0491  142.0352  159.1221 C.ar    1  UNL1        0.0134
     28 C         138.4384  141.9827  160.4912 C.ar    1  UNL1        0.0376
     29 C         140.7856  141.1621  157.3982 C.1     1  UNL1        0.1004
     30 N         141.3963  141.2145  156.0291 N.1     1  UNL1       -0.1908
@<TRIPOS>BOND
     1    20    21    1
     2     1    21    1
     3     1     2    1
     4     2     3    1
     5     3     4    1
     6     4     5    1
     7     4     6    1
     8     6     7    1
     9     6     8    1
    10     8     9    1
    11     9    11    1
    12    11    12    1
    13    12    13    1
    14    13    14    1
    15    14    15    1
    16    15    16    1
    17    15    17    1
    18     9    10    1
    19    10    22    1
    20    22    23    1
    21    23    24   ar
    22    24    25   ar
    23    25    26   ar
    24    26    29    1
    25    29    30    3
    26    26    27   ar
    27    27    28   ar
    28     7     1    1
    29    17    11    1
    30    28    23   ar
    31    10     4    1
    32    16    18    1
    33    16    19    1
@<TRIPOS>MOLECULE
*****
 30 33 0 0 0
SMALL
GASTEIGER

@<TRIPOS>ATOM
      1 C         140.7090  141.1828  169.4859 C.3     1  UNL1        0.1153
      2 C         141.4508  139.8877  169.3361 C.3     1  UNL1        0.0297
      3 C         142.1560  139.5716  168.0505 C.3     1  UNL1        0.0060
      4 C         142.1195  140.5506  166.9147 C.3     1  UNL1        0.0384
      5 C         142.8975  139.3026  166.6196 C.3     1  UNL1        0.0036
      6 C         141.3777  141.8457  167.0645 C.3     1  UNL1        0.0073
      7 C         140.6725  142.1618  168.3501 C.3     1  UNL1        0.0297
      8 C         141.5157  142.6100  165.7811 C.3     1  UNL1        0.0198
      9 C         142.3427  141.7872  164.8382 C.3     1  UNL1        0.0978
     10 C         142.7158  140.5144  165.5388 C.3     1  UNL1        0.1801
     11 N         142.7287  142.1699  163.4402 N.3     1  UNL1       -0.2697
     12 C         144.0513  142.8284  163.1810 C.3     1  UNL1        0.0722
     13 C         144.4374  143.2111  161.7830 C.3     1  UNL1        0.0187
     14 C         143.5010  142.9354  160.6442 C.3     1  UNL1        0.0183
     15 C         142.1784  142.2769  160.9034 C.3     1  UNL1        0.0670
     16 N         141.2419  142.0011  159.7645 N.3     1  UNL1       -0.3211
     17 C         141.7923  141.8942  162.3014 C.3     1  UNL1        0.0878
     18 H         141.6621  142.3240  158.8930 H       1  UNL1        0.1189
     19 H         140.3623  142.4934  159.9207 H       1  UNL1        0.1189
     20 C         139.5293  142.8957  171.0428 C.3     1  UNL1        0.1740
     21 O         140.0038  141.4989  170.7715 O.3     1  UNL1       -0.3536
     22 O         143.5406  139.4009  164.9644 O.3     1  UNL1       -0.4778
     23 C         143.3437  138.9805  163.5381 C.ar    1  UNL1        0.1385
     24 C         142.1044  138.2351  163.1401 C.ar    1  UNL1        0.0376
     25 C         141.9076  137.8147  161.7136 C.ar    1  UNL1        0.0134
     26 C         142.9502  138.1397  160.6853 C.ar    1  UNL1        0.0686
     27 C         144.1895  138.8852  161.0833 C.ar    1  UNL1        0.0134
     28 C         144.3862  139.3055  162.5097 C.ar    1  UNL1        0.0376
     29 C         142.7533  137.7193  159.2590 C.1     1  UNL1        0.1004
     30 N         142.5565  137.2990  157.8326 N.1     1  UNL1       -0.1908
@<TRIPOS>BOND
     1    20    21    1
     2     1    21    1
     3     1     2    1
     4     2     3    1
     5     3     4    1
     6     4     5    1
     7     4     6    1
     8     6     7    1
     9     6     8    1
    10     8     9    1
    11     9    11    1
    12    11    12    1
    13    12    13    1
    14    13    14    1
    15    14    15    1
    16    15    16    1
    17    15    17    1
    18     9    10    1
    19    10    22    1
    20    22    23    1
    21    23    24   ar
    22    24    25   ar
    23    25    26   ar
    24    26    29    1
    25    29    30    3
    26    26    27   ar
    27    27    28   ar
    28     7     1    1
    29    17    11    1
    30    28    23   ar
    31    10     4    1
    32    16    18    1
    33    16    19    1
@<TRIPOS>MOLECULE
*****
 30 33 0 0 0
SMALL
GASTEIGER

@<TRIPOS>ATOM
      1 C         141.2651  140.1661  169.4422 C.3     1  UNL1        0.1153
      2 C         142.5633  139.5115  169.0733 C.3     1  UNL1        0.0297
      3 C         142.8211  139.1050  167.6526 C.3     1  UNL1        0.0060
      4 C         141.7808  139.3530  166.6009 C.3     1  UNL1        0.0384
      5 C         143.0247  138.6925  166.0848 C.3     1  UNL1        0.0036
      6 C         140.4826  140.0076  166.9699 C.3     1  UNL1        0.0073
      7 C         140.2247  140.4141  168.3905 C.3     1  UNL1        0.0297
      8 C         139.6517  140.1229  165.7263 C.3     1  UNL1        0.0198
      9 C         140.4364  139.5395  164.5888 C.3     1  UNL1        0.0978
     10 C         141.7523  139.0637  165.1294 C.3     1  UNL1        0.1801
     11 N         139.9846  139.4480  163.1613 N.3     1  UNL1       -0.2697
     12 C         139.3627  138.1819  162.6512 C.3     1  UNL1        0.0722
     13 C         138.9110  138.0903  161.2239 C.3     1  UNL1        0.0187
     14 C         139.0811  139.2649  160.3066 C.3     1  UNL1        0.0183
     15 C         139.7030  140.5310  160.8167 C.3     1  UNL1        0.0670
     16 N         139.8731  141.7055  159.8993 N.3     1  UNL1       -0.3211
     17 C         140.1548  140.6225  162.2441 C.3     1  UNL1        0.0878
     18 H         139.5143  141.4692  158.9742 H       1  UNL1        0.1189
     19 H         140.8629  141.9421  159.8298 H       1  UNL1        0.1189
     20 C         140.7020  142.0044  171.1896 C.3     1  UNL1        0.1740
     21 O         141.0072  140.5726  170.8629 O.3     1  UNL1       -0.3536
     22 O         142.8473  138.4129  164.3374 O.3     1  UNL1       -0.4778
     23 C         143.1307  138.8664  162.9360 C.ar    1  UNL1        0.1385
     24 C         143.7005  140.2320  162.6903 C.ar    1  UNL1        0.0376
     25 C         143.9839  140.6854  161.2887 C.ar    1  UNL1        0.0134
     26 C         143.6974  139.7732  160.1330 C.ar    1  UNL1        0.0686
     27 C         143.1276  138.4075  160.3787 C.ar    1  UNL1        0.0134
     28 C         142.8443  137.9541  161.7802 C.ar    1  UNL1        0.0376
     29 C         143.9808  140.2266  158.7315 C.1     1  UNL1        0.1004
     30 N         144.2642  140.6801  157.3301 N.1     1  UNL1       -0.1908
@<TRIPOS>BOND
     1    20    21    1
     2     1    21    1
     3     1     2    1
     4     2     3    1
     5     3     4    1
     6     4     5    1
     7     4     6    1
     8     6     7    1
     9     6     8    1
    10     8     9    1
    11     9    11    1
    12    11    12    1
    13    12    13    1
    14    13    14    1
    15    14    15    1
    16    15    16    1
    17    15    17    1
    18     9    10    1
    19    10    22    1
    20    22    23    1
    21    23    24   ar
    22    24    25   ar
    23    25    26   ar
    24    26    29    1
    25    29    30    3
    26    26    27   ar
    27    27    28   ar
    28     7     1    1
    29    17    11    1
    30    28    23   ar
    31    10     4    1
    32    16    18    1
    33    16    19    1
@<TRIPOS>MOLECULE
*****
 30 33 0 0 0
SMALL
GASTEIGER

@<TRIPOS>ATOM
      1 C         140.3341  144.5958  159.3185 C.3     1  UNL1        0.1153
      2 C         141.4065  145.0667  160.2556 C.3     1  UNL1        0.0297
      3 C         141.7287  144.2724  161.4866 C.3     1  UNL1        0.0060
      4 C         140.9786  143.0071  161.7804 C.3     1  UNL1        0.0384
      5 C         142.0192  143.3512  162.8044 C.3     1  UNL1        0.0036
      6 C         139.9062  142.5362  160.8433 C.3     1  UNL1        0.0073
      7 C         139.5840  143.3305  159.6123 C.3     1  UNL1        0.0297
      8 C         139.3398  141.2597  161.3909 C.3     1  UNL1        0.0198
      9 C         140.0621  140.9417  162.6665 C.3     1  UNL1        0.0978
     10 C         141.0749  142.0217  162.9072 C.3     1  UNL1        0.1801
     11 N         139.8151  139.7526  163.5468 N.3     1  UNL1       -0.2697
     12 C         140.5912  138.4869  163.3329 C.3     1  UNL1        0.0722
     13 C         140.3442  137.2978  164.2132 C.3     1  UNL1        0.0187
     14 C         139.3211  137.3744  165.3074 C.3     1  UNL1        0.0183
     15 C         138.5450  138.6400  165.5213 C.3     1  UNL1        0.0670
     16 N         137.5218  138.7165  166.6156 N.3     1  UNL1       -0.3211
     17 C         138.7920  139.8291  164.6410 C.3     1  UNL1        0.0878
     18 H         137.4857  137.8252  167.1103 H       1  UNL1        0.1189
     19 H         136.6070  138.9187  166.2122 H       1  UNL1        0.1189
     20 C         141.1195  145.9394  157.2382 C.3     1  UNL1        0.1740
     21 O         140.0119  145.3901  158.0876 O.3     1  UNL1       -0.3536
     22 O         142.0185  142.1022  164.0705 O.3     1  UNL1       -0.4778
     23 C         141.5791  141.6346  165.4263 C.ar    1  UNL1        0.1385
     24 C         140.5694  142.4273  166.2023 C.ar    1  UNL1        0.0376
     25 C         140.1301  141.9597  167.5582 C.ar    1  UNL1        0.0134
     26 C         140.7005  140.6994  168.1381 C.ar    1  UNL1        0.0686
     27 C         141.7102  139.9067  167.3621 C.ar    1  UNL1        0.0134
     28 C         142.1495  140.3743  166.0063 C.ar    1  UNL1        0.0376
     29 C         140.2611  140.2318  169.4939 C.1     1  UNL1        0.1004
     30 N         139.8217  139.7642  170.8497 N.1     1  UNL1       -0.1908
@<TRIPOS>BOND
     1    20    21    1
     2     1    21    1
     3     1     2    1
     4     2     3    1
     5     3     4    1
     6     4     5    1
     7     4     6    1
     8     6     7    1
     9     6     8    1
    10     8     9    1
    11     9    11    1
    12    11    12    1
    13    12    13    1
    14    13    14    1
    15    14    15    1
    16    15    16    1
    17    15    17    1
    18     9    10    1
    19    10    22    1
    20    22    23    1
    21    23    24   ar
    22    24    25   ar
    23    25    26   ar
    24    26    29    1
    25    29    30    3
    26    26    27   ar
    27    27    28   ar
    28     7     1    1
    29    17    11    1
    30    28    23   ar
    31    10     4    1
    32    16    18    1
    33    16    19    1
@<TRIPOS>MOLECULE
*****
 30 33 0 0 0
SMALL
GASTEIGER

@<TRIPOS>ATOM
      1 C         141.4484  141.4226  169.4746 C.3     1  UNL1        0.1153
      2 C         142.8823  141.6707  169.1109 C.3     1  UNL1        0.0297
      3 C         143.2409  142.0865  167.7150 C.3     1  UNL1        0.0060
      4 C         142.1655  142.2543  166.6828 C.3     1  UNL1        0.0384
      5 C         143.5483  142.5362  166.1745 C.3     1  UNL1        0.0036
      6 C         140.7316  142.0062  167.0465 C.3     1  UNL1        0.0073
      7 C         140.3731  141.5903  168.4424 C.3     1  UNL1        0.0297
      8 C         139.8948  142.2499  165.8257 C.3     1  UNL1        0.0198
      9 C         140.8116  142.6487  164.7074 C.3     1  UNL1        0.0978
     10 C         142.2149  142.6514  165.2372 C.3     1  UNL1        0.1801
     11 N         140.3977  142.9857  163.3055 N.3     1  UNL1       -0.2697
     12 C         140.2386  141.8952  162.2879 C.3     1  UNL1        0.0722
     13 C         139.8247  142.2321  160.8861 C.3     1  UNL1        0.0187
     14 C         139.5700  143.6595  160.5019 C.3     1  UNL1        0.0183
     15 C         139.7292  144.7499  161.5195 C.3     1  UNL1        0.0670
     16 N         139.4744  146.1774  161.1352 N.3     1  UNL1       -0.3211
     17 C         140.1430  144.4130  162.9213 C.3     1  UNL1        0.0878
     18 H         139.2046  146.2220  160.1525 H       1  UNL1        0.1189
     19 H         140.3227  146.7250  161.2800 H       1  UNL1        0.1189
     20 C         140.0449  139.9542  171.0945 C.3     1  UNL1        0.1740
     21 O         141.0899  141.0067  170.8705 O.3     1  UNL1       -0.3536
     22 O         143.4508  142.9915  164.4581 O.3     1  UNL1       -0.4778
     23 C         143.6387  142.4454  163.0738 C.ar    1  UNL1        0.1385
     24 C         143.6653  143.3758  161.8976 C.ar    1  UNL1        0.0376
     25 C         143.8533  142.8296  160.5132 C.ar    1  UNL1        0.0134
     26 C         144.0147  141.3529  160.3051 C.ar    1  UNL1        0.0686
     27 C         143.9881  140.4224  161.4813 C.ar    1  UNL1        0.0134
     28 C         143.8001  140.9686  162.8656 C.ar    1  UNL1        0.0376
     29 C         144.2026  140.8068  158.9208 C.1     1  UNL1        0.1004
     30 N         144.3905  140.2606  157.5364 N.1     1  UNL1       -0.1908
@<TRIPOS>BOND
     1    20    21    1
     2     1    21    1
     3     1     2    1
     4     2     3    1
     5     3     4    1
     6     4     5    1
     7     4     6    1
     8     6     7    1
     9     6     8    1
    10     8     9    1
    11     9    11    1
    12    11    12    1
    13    12    13    1
    14    13    14    1
    15    14    15    1
    16    15    16    1
    17    15    17    1
    18     9    10    1
    19    10    22    1
    20    22    23    1
    21    23    24   ar
    22    24    25   ar
    23    25    26   ar
    24    26    29    1
    25    29    30    3
    26    26    27   ar
    27    27    28   ar
    28     7     1    1
    29    17    11    1
    30    28    23   ar
    31    10     4    1
    32    16    18    1
    33    16    19    1
@<TRIPOS>MOLECULE
*****
 30 33 0 0 0
SMALL
GASTEIGER

@<TRIPOS>ATOM
      1 C         139.9846  141.1967  169.3165 C.3     1  UNL1        0.1153
      2 C         139.2452  140.0023  168.7907 C.3     1  UNL1        0.0297
      3 C         139.1786  139.7520  167.3132 C.3     1  UNL1        0.0060
      4 C         139.8515  140.6962  166.3615 C.3     1  UNL1        0.0384
      5 C         139.1527  139.5502  165.6920 C.3     1  UNL1        0.0036
      6 C         140.5909  141.8907  166.8873 C.3     1  UNL1        0.0073
      7 C         140.6575  142.1409  168.3648 C.3     1  UNL1        0.0297
      8 C         141.1523  142.6409  165.7159 C.3     1  UNL1        0.0198
      9 C         140.7599  141.9101  164.4662 C.3     1  UNL1        0.0978
     10 C         139.9559  140.7082  164.8652 C.3     1  UNL1        0.1801
     11 N         141.1099  142.3107  163.0637 N.3     1  UNL1       -0.2697
     12 C         142.4395  141.9282  162.4841 C.3     1  UNL1        0.0722
     13 C         142.7895  142.3288  161.0817 C.3     1  UNL1        0.0187
     14 C         141.8100  143.1119  160.2588 C.3     1  UNL1        0.0183
     15 C         140.4804  143.4945  160.8383 C.3     1  UNL1        0.0670
     16 N         139.5009  144.2776  160.0154 N.3     1  UNL1       -0.3211
     17 C         140.1304  143.0939  162.2408 C.3     1  UNL1        0.0878
     18 H         139.9006  144.4618  159.0952 H       1  UNL1        0.1189
     19 H         139.2966  145.1621  160.4805 H       1  UNL1        0.1189
     20 C         141.3780  141.6652  171.4586 C.3     1  UNL1        0.1740
     21 O         140.0512  141.4470  170.7939 O.3     1  UNL1       -0.3536
     22 O         139.3608  139.6960  163.9318 O.3     1  UNL1       -0.4778
     23 C         140.1090  139.2807  162.6998 C.ar    1  UNL1        0.1385
     24 C         139.5841  139.6489  161.3437 C.ar    1  UNL1        0.0376
     25 C         140.3324  139.2335  160.1117 C.ar    1  UNL1        0.0134
     26 C         141.6055  138.4500  160.2359 C.ar    1  UNL1        0.0686
     27 C         142.1303  138.0819  161.5920 C.ar    1  UNL1        0.0134
     28 C         141.3821  138.4972  162.8239 C.ar    1  UNL1        0.0376
     29 C         142.3536  138.0347  159.0040 C.1     1  UNL1        0.1004
     30 N         143.1019  137.6195  157.7721 N.1     1  UNL1       -0.1908
@<TRIPOS>BOND
     1    20    21    1
     2     1    21    1
     3     1     2    1
     4     2     3    1
     5     3     4    1
     6     4     5    1
     7     4     6    1
     8     6     7    1
     9     6     8    1
    10     8     9    1
    11     9    11    1
    12    11    12    1
    13    12    13    1
    14    13    14    1
    15    14    15    1
    16    15    16    1
    17    15    17    1
    18     9    10    1
    19    10    22    1
    20    22    23    1
    21    23    24   ar
    22    24    25   ar
    23    25    26   ar
    24    26    29    1
    25    29    30    3
    26    26    27   ar
    27    27    28   ar
    28     7     1    1
    29    17    11    1
    30    28    23   ar
    31    10     4    1
    32    16    18    1
    33    16    19    1
