@<TRIPOS>MOLECULE
*****
 37 41 0 0 0
SMALL
GASTEIGER

@<TRIPOS>ATOM
      1 C         142.1569  144.1504  162.4293 C.2     1  UNL1        0.2352
      2 O         143.3142  145.1025  162.3650 O.2     1  UNL1       -0.2737
      3 N         141.9392  143.1590  161.3249 N.am    1  UNL1       -0.3008
      4 H         141.1796  142.5341  161.3670 H       1  UNL1        0.1497
      5 N         140.8649  145.4890  162.9366 N.3     1  UNL1       -0.3162
      6 C         141.2173  144.1896  163.5978 C.3     1  UNL1        0.1166
      7 C         141.8961  142.8766  163.8533 C.3     1  UNL1        0.0739
      8 C         141.5129  142.0540  165.0476 C.3     1  UNL1        0.2039
      9 N         140.4509  142.5445  165.9866 N.pl3   1  UNL1       -0.1931
     10 C         139.7721  143.8575  165.7312 C.3     1  UNL1        0.2039
     11 C         140.1554  144.6801  164.5368 C.3     1  UNL1        0.0739
     12 H         141.4365  145.6111  162.1007 H       1  UNL1        0.1192
     13 H         141.0397  146.2581  163.5834 H       1  UNL1        0.1192
     14 C         140.0677  141.7219  167.1810 C.2     1  UNL1        0.3205
     15 N         140.5363  142.1218  168.5486 N.2     1  UNL1        0.0097
     16 C         140.1531  141.2993  169.7430 C.2     1  UNL1        0.4717
     17 N         139.3013  140.0767  169.5697 N.2     1  UNL1        0.0158
     18 C         138.8326  139.6769  168.2021 C.2     1  UNL1        0.3714
     19 N         137.9892  138.5319  167.7251 N.2     1  UNL1       -0.0339
     20 C         137.8511  138.6468  166.2359 C.2     1  UNL1        0.2323
     21 C         138.6092  139.8629  165.7925 C.2     1  UNL1        0.0486
     22 C         139.2158  140.4995  167.0077 C.3     1  UNL1        0.2428
     23 C         142.8788  143.1196  160.1562 C.3     1  UNL1        0.0984
     24 C         142.5078  143.8009  158.8724 C.ar    1  UNL1       -0.0041
     25 C         141.5973  144.9928  158.8917 C.ar    1  UNL1       -0.0018
     26 C         141.2263  145.6740  157.6078 C.ar    1  UNL1        0.0111
     27 C         141.7658  145.1634  156.3047 C.ar    1  UNL1        0.0577
     28 CL        141.3948  145.8447  155.0208 Cl      1  UNL1       -0.0822
     29 C         142.6763  143.9715  156.2854 C.ar    1  UNL1        0.0111
     30 C         143.0473  143.2902  157.5693 C.ar    1  UNL1       -0.0018
     31 C         144.1893  142.3991  160.2715 C.3     1  UNL1        0.0504
     32 C         144.5001  141.6001  161.5024 C.ar    1  UNL1       -0.0202
     33 C         143.9425  140.2163  161.6589 C.ar    1  UNL1       -0.0042
     34 C         144.2534  139.4174  162.8898 C.ar    1  UNL1       -0.0003
     35 C         145.1217  140.0021  163.9641 C.ar    1  UNL1       -0.0000
     36 C         145.6793  141.3858  163.8075 C.ar    1  UNL1       -0.0003
     37 C         145.3684  142.1847  162.5767 C.ar    1  UNL1       -0.0042
@<TRIPOS>BOND
     1     5     6    1
     2     6     1    1
     3     1     2    2
     4     1     3   am
     5     3    23    1
     6    23    31    1
     7    31    32    1
     8    32    33   ar
     9    33    34   ar
    10    34    35   ar
    11    35    36   ar
    12    36    37   ar
    13    23    24    1
    14    24    25   ar
    15    25    26   ar
    16    26    27   ar
    17    27    28    1
    18    27    29   ar
    19    29    30   ar
    20     6     7    1
    21     7     8    1
    22     8     9    1
    23     9    14    1
    24    14    15    2
    25    15    16    1
    26    16    17    2
    27    17    18    1
    28    18    19    2
    29    19    20    1
    30    20    21    2
    31    21    22    1
    32     9    10    1
    33    10    11    1
    34    11     6    1
    35    37    32   ar
    36    30    24   ar
    37    22    14    1
    38    22    18    1
    39     5    12    1
    40     5    13    1
    41     3     4    1
@<TRIPOS>MOLECULE
*****
 37 41 0 0 0
SMALL
GASTEIGER

@<TRIPOS>ATOM
      1 C         143.8755  140.4738  162.8671 C.2     1  UNL1        0.2352
      2 O         145.2544  140.8513  162.4131 O.2     1  UNL1       -0.2737
      3 N         142.7033  140.6763  161.9533 N.am    1  UNL1       -0.3008
      4 H         141.7982  140.4285  162.2513 H       1  UNL1        0.1497
      5 N         144.6901  138.9359  163.6975 N.3     1  UNL1       -0.3162
      6 C         143.6686  139.8938  164.2349 C.3     1  UNL1        0.1166
      7 C         142.7189  141.0532  164.2972 C.3     1  UNL1        0.0739
      8 C         141.9171  141.2999  165.5406 C.3     1  UNL1        0.2039
      9 N         142.0650  140.3872  166.7219 N.pl3   1  UNL1       -0.1931
     10 C         143.0147  139.2278  166.6596 C.3     1  UNL1        0.2039
     11 C         143.8165  138.9811  165.4160 C.3     1  UNL1        0.0739
     12 H         144.9409  139.2046  162.7461 H       1  UNL1        0.1192
     13 H         144.3025  137.9924  163.6934 H       1  UNL1        0.1192
     14 C         141.2632  140.6339  167.9654 C.2     1  UNL1        0.3205
     15 N         139.9222  139.9835  168.1344 N.2     1  UNL1        0.0097
     16 C         139.1204  140.2302  169.3778 C.2     1  UNL1        0.4717
     17 N         139.6596  141.1274  170.4523 N.2     1  UNL1        0.0158
     18 C         141.0006  141.7778  170.2832 C.2     1  UNL1        0.3714
     19 N         141.7853  142.7038  171.1647 N.2     1  UNL1       -0.0339
     20 C         143.0720  143.0294  170.4659 C.2     1  UNL1        0.2323
     21 C         143.0827  142.3046  169.1527 C.2     1  UNL1        0.0486
     22 C         141.8024  141.5311  169.0398 C.3     1  UNL1        0.2428
     23 C         142.9100  141.2564  160.5855 C.3     1  UNL1        0.0984
     24 C         142.9704  140.3535  159.3893 C.ar    1  UNL1       -0.0041
     25 C         143.4873  140.8750  158.0813 C.ar    1  UNL1       -0.0018
     26 C         143.5477  139.9721  156.8850 C.ar    1  UNL1        0.0111
     27 C         143.0911  138.5476  156.9967 C.ar    1  UNL1        0.0577
     28 CL        143.1515  137.6447  155.8004 Cl      1  UNL1       -0.0822
     29 C         142.5742  138.0261  158.3046 C.ar    1  UNL1        0.0111
     30 C         142.5138  138.9290  159.5010 C.ar    1  UNL1       -0.0018
     31 C         143.0564  142.7394  160.4141 C.3     1  UNL1        0.0504
     32 C         142.8062  143.6568  161.5742 C.ar    1  UNL1       -0.0202
     33 C         141.4102  144.1093  161.8850 C.ar    1  UNL1       -0.0042
     34 C         141.1601  145.0267  163.0451 C.ar    1  UNL1       -0.0003
     35 C         142.3058  145.4915  163.8943 C.ar    1  UNL1       -0.0000
     36 C         143.7018  145.0390  163.5835 C.ar    1  UNL1       -0.0003
     37 C         143.9519  144.1216  162.4234 C.ar    1  UNL1       -0.0042
@<TRIPOS>BOND
     1     5     6    1
     2     6     1    1
     3     1     2    2
     4     1     3   am
     5     3    23    1
     6    23    31    1
     7    31    32    1
     8    32    33   ar
     9    33    34   ar
    10    34    35   ar
    11    35    36   ar
    12    36    37   ar
    13    23    24    1
    14    24    25   ar
    15    25    26   ar
    16    26    27   ar
    17    27    28    1
    18    27    29   ar
    19    29    30   ar
    20     6     7    1
    21     7     8    1
    22     8     9    1
    23     9    14    1
    24    14    15    2
    25    15    16    1
    26    16    17    2
    27    17    18    1
    28    18    19    2
    29    19    20    1
    30    20    21    2
    31    21    22    1
    32     9    10    1
    33    10    11    1
    34    11     6    1
    35    37    32   ar
    36    30    24   ar
    37    22    14    1
    38    22    18    1
    39     5    12    1
    40     5    13    1
    41     3     4    1
@<TRIPOS>MOLECULE
*****
 37 41 0 0 0
SMALL
GASTEIGER

@<TRIPOS>ATOM
      1 C         140.4952  143.2936  164.4705 C.2     1  UNL1        0.2352
      2 O         140.1078  143.6146  165.8836 O.2     1  UNL1       -0.2737
      3 N         141.1545  141.9843  164.1524 N.am    1  UNL1       -0.3008
      4 H         141.4088  141.7737  163.2249 H       1  UNL1        0.1497
      5 N         139.6322  145.0167  164.5417 N.3     1  UNL1       -0.3162
      6 C         140.2233  144.2819  163.3753 C.3     1  UNL1        0.1166
      7 C         140.9088  143.2038  162.5891 C.3     1  UNL1        0.0739
      8 C         141.1172  143.3692  161.1130 C.3     1  UNL1        0.2039
      9 N         140.6400  144.6127  160.4228 N.pl3   1  UNL1       -0.1931
     10 C         139.9545  145.6907  161.2089 C.3     1  UNL1        0.2039
     11 C         139.7462  145.5252  162.6851 C.3     1  UNL1        0.0739
     12 H         139.7421  144.4568  165.3872 H       1  UNL1        0.1192
     13 H         138.6406  145.1839  164.3711 H       1  UNL1        0.1192
     14 C         140.8484  144.7780  158.9466 C.2     1  UNL1        0.3205
     15 N         141.9239  145.6920  158.4387 N.2     1  UNL1        0.0097
     16 C         142.1323  145.8574  156.9626 C.2     1  UNL1        0.4717
     17 N         141.2652  145.1088  155.9941 N.2     1  UNL1        0.0158
     18 C         140.1897  144.1948  156.5020 C.2     1  UNL1        0.3714
     19 N         139.1874  143.3330  155.7929 N.2     1  UNL1       -0.0339
     20 C         138.3596  142.6351  156.8310 C.2     1  UNL1        0.2323
     21 C         138.8502  143.0655  158.1816 C.2     1  UNL1        0.0486
     22 C         139.9813  144.0295  157.9782 C.3     1  UNL1        0.2428
     23 C         141.4264  140.9960  165.2476 C.3     1  UNL1        0.0984
     24 C         140.3795  139.9916  165.6283 C.ar    1  UNL1       -0.0041
     25 C         140.2606  138.7060  164.8645 C.ar    1  UNL1       -0.0018
     26 C         139.2136  137.7016  165.2453 C.ar    1  UNL1        0.0111
     27 C         138.2856  137.9827  166.3898 C.ar    1  UNL1        0.0577
     28 CL        137.2387  136.9781  166.7705 Cl      1  UNL1       -0.0822
     29 C         138.4045  139.2681  167.1535 C.ar    1  UNL1        0.0111
     30 C         139.4515  140.2727  166.7728 C.ar    1  UNL1       -0.0018
     31 C         142.7453  141.0122  165.9619 C.3     1  UNL1        0.0504
     32 C         142.7952  140.8217  167.4490 C.ar    1  UNL1       -0.0202
     33 C         143.0002  142.0032  168.3500 C.ar    1  UNL1       -0.0042
     34 C         143.0501  141.8126  169.8370 C.ar    1  UNL1       -0.0003
     35 C         142.8949  140.4406  170.4229 C.ar    1  UNL1       -0.0000
     36 C         142.6899  139.2590  169.5219 C.ar    1  UNL1       -0.0003
     37 C         142.6400  139.4496  168.0349 C.ar    1  UNL1       -0.0042
@<TRIPOS>BOND
     1     5     6    1
     2     6     1    1
     3     1     2    2
     4     1     3   am
     5     3    23    1
     6    23    31    1
     7    31    32    1
     8    32    33   ar
     9    33    34   ar
    10    34    35   ar
    11    35    36   ar
    12    36    37   ar
    13    23    24    1
    14    24    25   ar
    15    25    26   ar
    16    26    27   ar
    17    27    28    1
    18    27    29   ar
    19    29    30   ar
    20     6     7    1
    21     7     8    1
    22     8     9    1
    23     9    14    1
    24    14    15    2
    25    15    16    1
    26    16    17    2
    27    17    18    1
    28    18    19    2
    29    19    20    1
    30    20    21    2
    31    21    22    1
    32     9    10    1
    33    10    11    1
    34    11     6    1
    35    37    32   ar
    36    30    24   ar
    37    22    14    1
    38    22    18    1
    39     5    12    1
    40     5    13    1
    41     3     4    1
@<TRIPOS>MOLECULE
*****
 37 41 0 0 0
SMALL
GASTEIGER

@<TRIPOS>ATOM
      1 C         138.9651  143.2896  164.2094 C.2     1  UNL1        0.2352
      2 O         137.5343  143.2431  164.6570 O.2     1  UNL1       -0.2737
      3 N         139.9522  142.2968  164.7479 N.am    1  UNL1       -0.3008
      4 H         140.8913  142.3273  164.4541 H       1  UNL1        0.1497
      5 N         139.2248  145.1864  164.4399 N.3     1  UNL1       -0.3162
      6 C         139.4091  144.3289  163.2231 C.3     1  UNL1        0.1166
      7 C         139.4392  143.1104  162.3488 C.3     1  UNL1        0.0739
      8 C         139.8492  143.2289  160.9109 C.3     1  UNL1        0.2039
      9 N         140.2292  144.5661  160.3471 N.pl3   1  UNL1       -0.1931
     10 C         140.1991  145.7846  161.2214 C.3     1  UNL1        0.2039
     11 C         139.7891  145.6660  162.6594 C.3     1  UNL1        0.0739
     12 H         138.9149  144.6073  165.2202 H       1  UNL1        0.1192
     13 H         138.5240  145.9023  164.2483 H       1  UNL1        0.1192
     14 C         140.6392  144.6847  158.9091 C.2     1  UNL1        0.3205
     15 N         141.7989  145.5569  158.5294 N.2     1  UNL1        0.0097
     16 C         142.2090  145.6755  157.0915 C.2     1  UNL1        0.4717
     17 N         141.4593  144.9218  156.0331 N.2     1  UNL1        0.0158
     18 C         140.2996  144.0495  156.4129 C.2     1  UNL1        0.3714
     19 N         139.3779  143.1934  155.5959 N.2     1  UNL1       -0.0339
     20 C         138.3982  142.5457  156.5290 C.2     1  UNL1        0.2323
     21 C         138.7144  143.0015  157.9226 C.2     1  UNL1        0.0486
     22 C         139.8895  143.9310  157.8509 C.3     1  UNL1        0.2428
     23 C         139.5083  141.2574  165.7342 C.3     1  UNL1        0.0984
     24 C         140.0355  141.2822  167.1383 C.ar    1  UNL1       -0.0041
     25 C         140.6317  142.5417  167.6934 C.ar    1  UNL1       -0.0018
     26 C         141.1589  142.5665  169.0975 C.ar    1  UNL1        0.0111
     27 C         141.0900  141.3317  169.9464 C.ar    1  UNL1        0.0577
     28 CL        141.6173  141.3566  171.3505 Cl      1  UNL1       -0.0822
     29 C         140.4939  140.0722  169.3913 C.ar    1  UNL1        0.0111
     30 C         139.9667  140.0474  167.9872 C.ar    1  UNL1       -0.0018
     31 C         138.5372  140.1932  165.3164 C.3     1  UNL1        0.0504
     32 C         138.7093  139.4961  163.9994 C.ar    1  UNL1       -0.0202
     33 C         137.8523  139.8803  162.8298 C.ar    1  UNL1       -0.0042
     34 C         138.0245  139.1831  161.5129 C.ar    1  UNL1       -0.0003
     35 C         139.0536  138.1019  161.3655 C.ar    1  UNL1       -0.0000
     36 C         139.9107  137.7177  162.5351 C.ar    1  UNL1       -0.0003
     37 C         139.7385  138.4149  163.8520 C.ar    1  UNL1       -0.0042
@<TRIPOS>BOND
     1     5     6    1
     2     6     1    1
     3     1     2    2
     4     1     3   am
     5     3    23    1
     6    23    31    1
     7    31    32    1
     8    32    33   ar
     9    33    34   ar
    10    34    35   ar
    11    35    36   ar
    12    36    37   ar
    13    23    24    1
    14    24    25   ar
    15    25    26   ar
    16    26    27   ar
    17    27    28    1
    18    27    29   ar
    19    29    30   ar
    20     6     7    1
    21     7     8    1
    22     8     9    1
    23     9    14    1
    24    14    15    2
    25    15    16    1
    26    16    17    2
    27    17    18    1
    28    18    19    2
    29    19    20    1
    30    20    21    2
    31    21    22    1
    32     9    10    1
    33    10    11    1
    34    11     6    1
    35    37    32   ar
    36    30    24   ar
    37    22    14    1
    38    22    18    1
    39     5    12    1
    40     5    13    1
    41     3     4    1
@<TRIPOS>MOLECULE
*****
 37 41 0 0 0
SMALL
GASTEIGER

@<TRIPOS>ATOM
      1 C         139.1050  143.3133  164.1252 C.2     1  UNL1        0.2352
      2 O         137.7127  143.4847  164.6562 O.2     1  UNL1       -0.2737
      3 N         139.9693  142.1973  164.6328 N.am    1  UNL1       -0.3008
      4 H         140.8831  142.0848  164.2842 H       1  UNL1        0.1497
      5 N         139.5201  145.1920  164.2547 N.3     1  UNL1       -0.3162
      6 C         139.6332  144.2579  163.0866 C.3     1  UNL1        0.1166
      7 C         139.5629  142.9957  162.2791 C.3     1  UNL1        0.0739
      8 C         139.9814  143.0024  160.8388 C.3     1  UNL1        0.2039
      9 N         140.4704  144.2715  160.2057 N.pl3   1  UNL1       -0.1931
     10 C         140.5408  145.5337  161.0132 C.3     1  UNL1        0.2039
     11 C         140.1222  145.5268  162.4536 C.3     1  UNL1        0.0739
     12 H         139.1634  144.6833  165.0636 H       1  UNL1        0.1192
     13 H         138.8807  145.9518  164.0218 H       1  UNL1        0.1192
     14 C         140.8890  144.2782  158.7653 C.2     1  UNL1        0.3205
     15 N         140.0161  144.9293  157.7337 N.2     1  UNL1        0.0097
     16 C         140.4347  144.9361  156.2934 C.2     1  UNL1        0.4717
     17 N         141.7261  144.2917  155.8845 N.2     1  UNL1        0.0158
     18 C         142.5989  143.6406  156.9162 C.2     1  UNL1        0.3714
     19 N         143.9167  142.9314  156.8130 N.2     1  UNL1       -0.0339
     20 C         144.3125  142.4864  158.1897 C.2     1  UNL1        0.2323
     21 C         143.2394  142.9205  159.1436 C.2     1  UNL1        0.0486
     22 C         142.1804  143.6339  158.3566 C.3     1  UNL1        0.2428
     23 C         139.4411  141.2526  165.6714 C.3     1  UNL1        0.0984
     24 C         139.8816  141.3851  167.0991 C.ar    1  UNL1       -0.0041
     25 C         140.5334  142.6521  167.5684 C.ar    1  UNL1       -0.0018
     26 C         140.9739  142.7846  168.9961 C.ar    1  UNL1        0.0111
     27 C         140.7627  141.6502  169.9545 C.ar    1  UNL1        0.0577
     28 CL        141.2032  141.7828  171.3823 Cl      1  UNL1       -0.0822
     29 C         140.1110  140.3833  169.4853 C.ar    1  UNL1        0.0111
     30 C         139.6704  140.2507  168.0575 C.ar    1  UNL1       -0.0018
     31 C         138.4724  140.1755  165.2823 C.3     1  UNL1        0.0504
     32 C         138.6027  139.4945  163.9521 C.ar    1  UNL1       -0.0202
     33 C         137.7549  139.9373  162.7966 C.ar    1  UNL1       -0.0042
     34 C         137.8853  139.2562  161.4665 C.ar    1  UNL1       -0.0003
     35 C         138.8633  138.1325  161.2919 C.ar    1  UNL1       -0.0000
     36 C         139.7111  137.6896  162.4474 C.ar    1  UNL1       -0.0003
     37 C         139.5808  138.3707  163.7775 C.ar    1  UNL1       -0.0042
@<TRIPOS>BOND
     1     5     6    1
     2     6     1    1
     3     1     2    2
     4     1     3   am
     5     3    23    1
     6    23    31    1
     7    31    32    1
     8    32    33   ar
     9    33    34   ar
    10    34    35   ar
    11    35    36   ar
    12    36    37   ar
    13    23    24    1
    14    24    25   ar
    15    25    26   ar
    16    26    27   ar
    17    27    28    1
    18    27    29   ar
    19    29    30   ar
    20     6     7    1
    21     7     8    1
    22     8     9    1
    23     9    14    1
    24    14    15    2
    25    15    16    1
    26    16    17    2
    27    17    18    1
    28    18    19    2
    29    19    20    1
    30    20    21    2
    31    21    22    1
    32     9    10    1
    33    10    11    1
    34    11     6    1
    35    37    32   ar
    36    30    24   ar
    37    22    14    1
    38    22    18    1
    39     5    12    1
    40     5    13    1
    41     3     4    1
@<TRIPOS>MOLECULE
*****
 37 41 0 0 0
SMALL
GASTEIGER

@<TRIPOS>ATOM
      1 C         138.7780  141.9500  162.5454 C.2     1  UNL1        0.2352
      2 O         137.7289  142.9391  162.1319 O.2     1  UNL1       -0.2737
      3 N         139.9350  141.6597  161.6361 N.am    1  UNL1       -0.3008
      4 H         140.6236  141.0104  161.9075 H       1  UNL1        0.1497
      5 N         137.3959  140.7898  163.2254 N.3     1  UNL1       -0.3162
      6 C         138.6701  141.2512  163.8683 C.3     1  UNL1        0.1166
      7 C         139.9819  141.9552  164.0518 C.3     1  UNL1        0.0739
      8 C         140.7433  141.8003  165.3348 C.3     1  UNL1        0.2039
      9 N         140.1929  140.9412  166.4345 N.pl3   1  UNL1       -0.1931
     10 C         138.8812  140.2371  166.2510 C.3     1  UNL1        0.2039
     11 C         138.1198  140.3922  164.9679 C.3     1  UNL1        0.0739
     12 H         137.3212  141.1923  162.2912 H       1  UNL1        0.1192
     13 H         136.6017  141.0914  163.7900 H       1  UNL1        0.1192
     14 C         140.9543  140.7862  167.7175 C.2     1  UNL1        0.3205
     15 N         141.7205  139.5252  167.9873 N.2     1  UNL1        0.0097
     16 C         142.4819  139.3702  169.2703 C.2     1  UNL1        0.4717
     17 N         142.4771  140.4763  170.2837 N.2     1  UNL1        0.0158
     18 C         141.7109  141.7372  170.0139 C.2     1  UNL1        0.3714
     19 N         141.5229  142.9890  170.8186 N.2     1  UNL1       -0.0339
     20 C         140.6452  143.9177  170.0329 C.2     1  UNL1        0.2323
     21 C         140.2908  143.2398  168.7426 C.2     1  UNL1        0.0486
     22 C         140.9495  141.8922  168.7308 C.3     1  UNL1        0.2428
     23 C         140.0430  142.3585  160.3132 C.3     1  UNL1        0.0984
     24 C         139.3619  141.7868  159.1052 C.ar    1  UNL1       -0.0041
     25 C         139.7711  140.4429  158.5792 C.ar    1  UNL1       -0.0018
     26 C         139.0900  139.8712  157.3712 C.ar    1  UNL1        0.0111
     27 C         137.9997  140.6433  156.6892 C.ar    1  UNL1        0.0577
     28 CL        137.3186  140.0716  155.4812 Cl      1  UNL1       -0.0822
     29 C         137.5905  141.9871  157.2152 C.ar    1  UNL1        0.0111
     30 C         138.2716  142.5589  158.4232 C.ar    1  UNL1       -0.0018
     31 C         140.8320  143.6290  160.1983 C.3     1  UNL1        0.0504
     32 C         141.6605  144.1045  161.3549 C.ar    1  UNL1       -0.0202
     33 C         141.0544  145.0023  162.3925 C.ar    1  UNL1       -0.0042
     34 C         141.8829  145.4778  163.5491 C.ar    1  UNL1       -0.0003
     35 C         143.3173  145.0554  163.6680 C.ar    1  UNL1       -0.0000
     36 C         143.9233  144.1576  162.6303 C.ar    1  UNL1       -0.0003
     37 C         143.0948  143.6822  161.4738 C.ar    1  UNL1       -0.0042
@<TRIPOS>BOND
     1     5     6    1
     2     6     1    1
     3     1     2    2
     4     1     3   am
     5     3    23    1
     6    23    31    1
     7    31    32    1
     8    32    33   ar
     9    33    34   ar
    10    34    35   ar
    11    35    36   ar
    12    36    37   ar
    13    23    24    1
    14    24    25   ar
    15    25    26   ar
    16    26    27   ar
    17    27    28    1
    18    27    29   ar
    19    29    30   ar
    20     6     7    1
    21     7     8    1
    22     8     9    1
    23     9    14    1
    24    14    15    2
    25    15    16    1
    26    16    17    2
    27    17    18    1
    28    18    19    2
    29    19    20    1
    30    20    21    2
    31    21    22    1
    32     9    10    1
    33    10    11    1
    34    11     6    1
    35    37    32   ar
    36    30    24   ar
    37    22    14    1
    38    22    18    1
    39     5    12    1
    40     5    13    1
    41     3     4    1
@<TRIPOS>MOLECULE
*****
 37 41 0 0 0
SMALL
GASTEIGER

@<TRIPOS>ATOM
      1 C         141.8207  140.1533  162.6010 C.2     1  UNL1        0.2352
      2 O         141.1931  139.1585  161.6701 O.2     1  UNL1       -0.2737
      3 N         142.1232  141.5421  162.1216 N.am    1  UNL1       -0.3008
      4 H         142.5351  142.1949  162.7326 H       1  UNL1        0.1497
      5 N         143.1890  138.9729  163.2742 N.3     1  UNL1       -0.3162
      6 C         142.1460  139.7593  164.0113 C.3     1  UNL1        0.1166
      7 C         140.9899  140.6826  164.2588 C.3     1  UNL1        0.0739
      8 C         140.5214  140.9388  165.6604 C.3     1  UNL1        0.2039
      9 N         141.2089  140.2717  166.8148 N.pl3   1  UNL1       -0.1931
     10 C         142.3649  139.3485  166.5674 C.3     1  UNL1        0.2039
     11 C         142.8334  139.0923  165.1656 C.3     1  UNL1        0.0739
     12 H         143.0958  139.1400  162.2723 H       1  UNL1        0.1192
     13 H         143.0642  137.9789  163.4662 H       1  UNL1        0.1192
     14 C         140.7403  140.5279  168.2165 C.2     1  UNL1        0.3205
     15 N         139.4623  139.9126  168.7044 N.2     1  UNL1        0.0097
     16 C         138.9937  140.1688  170.1060 C.2     1  UNL1        0.4717
     17 N         139.8031  141.0404  171.0199 N.2     1  UNL1        0.0158
     18 C         141.0811  141.6558  170.5321 C.2     1  UNL1        0.3714
     19 N         142.0824  142.5514  171.1992 N.2     1  UNL1       -0.0339
     20 C         143.1699  142.8488  170.2098 C.2     1  UNL1        0.2323
     21 C         142.8407  142.1369  168.9312 C.2     1  UNL1        0.0486
     22 C         141.5497  141.3995  169.1304 C.3     1  UNL1        0.2428
     23 C         141.7979  141.9361  160.7113 C.3     1  UNL1        0.0984
     24 C         142.7884  141.6814  159.6140 C.ar    1  UNL1       -0.0041
     25 C         143.8821  142.6724  159.3459 C.ar    1  UNL1       -0.0018
     26 C         144.8725  142.4176  158.2486 C.ar    1  UNL1        0.0111
     27 C         144.7694  141.1719  157.4195 C.ar    1  UNL1        0.0577
     28 CL        145.7599  140.9172  156.3222 Cl      1  UNL1       -0.0822
     29 C         143.6758  140.1809  157.6875 C.ar    1  UNL1        0.0111
     30 C         142.6852  140.4356  158.7849 C.ar    1  UNL1       -0.0018
     31 C         140.4822  142.5849  160.3983 C.3     1  UNL1        0.0504
     32 C         139.5744  143.0153  161.5123 C.ar    1  UNL1       -0.0202
     33 C         138.4507  142.1237  161.9509 C.ar    1  UNL1       -0.0042
     34 C         137.5430  142.5541  163.0648 C.ar    1  UNL1       -0.0003
     35 C         137.7590  143.8760  163.7400 C.ar    1  UNL1       -0.0000
     36 C         138.8827  144.7676  163.3014 C.ar    1  UNL1       -0.0003
     37 C         139.7904  144.3372  162.1875 C.ar    1  UNL1       -0.0042
@<TRIPOS>BOND
     1     5     6    1
     2     6     1    1
     3     1     2    2
     4     1     3   am
     5     3    23    1
     6    23    31    1
     7    31    32    1
     8    32    33   ar
     9    33    34   ar
    10    34    35   ar
    11    35    36   ar
    12    36    37   ar
    13    23    24    1
    14    24    25   ar
    15    25    26   ar
    16    26    27   ar
    17    27    28    1
    18    27    29   ar
    19    29    30   ar
    20     6     7    1
    21     7     8    1
    22     8     9    1
    23     9    14    1
    24    14    15    2
    25    15    16    1
    26    16    17    2
    27    17    18    1
    28    18    19    2
    29    19    20    1
    30    20    21    2
    31    21    22    1
    32     9    10    1
    33    10    11    1
    34    11     6    1
    35    37    32   ar
    36    30    24   ar
    37    22    14    1
    38    22    18    1
    39     5    12    1
    40     5    13    1
    41     3     4    1
@<TRIPOS>MOLECULE
*****
 37 41 0 0 0
SMALL
GASTEIGER

@<TRIPOS>ATOM
      1 C         140.6449  142.7939  164.4463 C.2     1  UNL1        0.2352
      2 O         142.0182  142.1940  164.5095 O.2     1  UNL1       -0.2737
      3 N         139.6394  142.4801  165.5143 N.am    1  UNL1       -0.3008
      4 H         138.7380  142.8738  165.4727 H       1  UNL1        0.1497
      5 N         140.2752  144.6865  164.4516 N.3     1  UNL1       -0.3162
      6 C         140.2769  143.7077  163.3151 C.3     1  UNL1        0.1166
      7 C         140.4064  142.4114  162.5713 C.3     1  UNL1        0.0739
      8 C         140.1674  142.3689  161.0912 C.3     1  UNL1        0.2039
      9 N         139.7988  143.6227  160.3546 N.pl3   1  UNL1       -0.1931
     10 C         139.6693  144.9189  161.0983 C.3     1  UNL1        0.2039
     11 C         139.9084  144.9613  162.5786 C.3     1  UNL1        0.0739
     12 H         140.5146  144.2029  165.3172 H       1  UNL1        0.1192
     13 H         139.3484  145.1032  164.5401 H       1  UNL1        0.1192
     14 C         139.5598  143.5801  158.8744 C.2     1  UNL1        0.3205
     15 N         138.4483  142.7405  158.3180 N.2     1  UNL1        0.0097
     16 C         138.2093  142.6979  156.8379 C.2     1  UNL1        0.4717
     17 N         139.0817  143.4951  155.9140 N.2     1  UNL1        0.0158
     18 C         140.1931  144.3347  156.4704 C.2     1  UNL1        0.3714
     19 N         141.2086  145.2203  155.8111 N.2     1  UNL1       -0.0339
     20 C         142.0752  145.8102  156.8840 C.2     1  UNL1        0.2323
     21 C         141.5954  145.2892  158.2062 C.2     1  UNL1        0.0486
     22 C         140.4322  144.3773  157.9506 C.3     1  UNL1        0.2428
     23 C         140.0073  141.5663  166.6455 C.3     1  UNL1        0.0984
     24 C         140.8716  142.0679  167.7641 C.ar    1  UNL1       -0.0041
     25 C         142.2965  141.6120  167.8734 C.ar    1  UNL1       -0.0018
     26 C         143.1607  142.1137  168.9920 C.ar    1  UNL1        0.0111
     27 C         142.6001  143.0712  170.0014 C.ar    1  UNL1        0.0577
     28 CL        143.4644  143.5729  171.1201 Cl      1  UNL1       -0.0822
     29 C         141.1753  143.5271  169.8922 C.ar    1  UNL1        0.0111
     30 C         140.3109  143.0255  168.7735 C.ar    1  UNL1       -0.0018
     31 C         139.5109  140.1508  166.6580 C.3     1  UNL1        0.0504
     32 C         139.9281  139.2001  165.5753 C.ar    1  UNL1       -0.0202
     33 C         138.9081  138.6614  164.6163 C.ar    1  UNL1       -0.0042
     34 C         139.3254  137.7108  163.5337 C.ar    1  UNL1       -0.0003
     35 C         140.7624  137.2989  163.4099 C.ar    1  UNL1       -0.0000
     36 C         141.7823  137.8376  164.3689 C.ar    1  UNL1       -0.0003
     37 C         141.3651  138.7883  165.4516 C.ar    1  UNL1       -0.0042
@<TRIPOS>BOND
     1     5     6    1
     2     6     1    1
     3     1     2    2
     4     1     3   am
     5     3    23    1
     6    23    31    1
     7    31    32    1
     8    32    33   ar
     9    33    34   ar
    10    34    35   ar
    11    35    36   ar
    12    36    37   ar
    13    23    24    1
    14    24    25   ar
    15    25    26   ar
    16    26    27   ar
    17    27    28    1
    18    27    29   ar
    19    29    30   ar
    20     6     7    1
    21     7     8    1
    22     8     9    1
    23     9    14    1
    24    14    15    2
    25    15    16    1
    26    16    17    2
    27    17    18    1
    28    18    19    2
    29    19    20    1
    30    20    21    2
    31    21    22    1
    32     9    10    1
    33    10    11    1
    34    11     6    1
    35    37    32   ar
    36    30    24   ar
    37    22    14    1
    38    22    18    1
    39     5    12    1
    40     5    13    1
    41     3     4    1
@<TRIPOS>MOLECULE
*****
 37 41 0 0 0
SMALL
GASTEIGER

@<TRIPOS>ATOM
      1 C         141.0794  140.2836  161.9249 C.2     1  UNL1        0.2352
      2 O         140.8517  141.4945  162.7803 O.2     1  UNL1       -0.2737
      3 N         141.4896  138.9860  162.5558 N.am    1  UNL1       -0.3008
      4 H         141.6390  138.1912  161.9943 H       1  UNL1        0.1497
      5 N         142.3312  139.9351  160.5000 N.3     1  UNL1       -0.3162
      6 C         140.8970  140.3702  160.4386 C.3     1  UNL1        0.1166
      7 C         139.5261  140.7752  160.8933 C.3     1  UNL1        0.0739
      8 C         138.4710  141.1157  159.8831 C.3     1  UNL1        0.2039
      9 N         138.7866  141.0512  158.4180 N.pl3   1  UNL1       -0.1931
     10 C         140.1574  140.6462  157.9633 C.3     1  UNL1        0.2039
     11 C         141.2126  140.3057  158.9736 C.3     1  UNL1        0.0739
     12 H         142.6129  139.8293  161.4746 H       1  UNL1        0.1192
     13 H         142.9190  140.6371  160.0504 H       1  UNL1        0.1192
     14 C         137.7314  141.3917  157.4078 C.2     1  UNL1        0.3205
     15 N         136.6061  140.4348  157.1471 N.2     1  UNL1        0.0097
     16 C         135.5509  140.7753  156.1369 C.2     1  UNL1        0.4717
     17 N         135.6209  142.0727  155.3873 N.2     1  UNL1        0.0158
     18 C         136.7463  143.0296  155.6480 C.2     1  UNL1        0.3714
     19 N         137.0766  144.3726  155.0673 N.2     1  UNL1       -0.0339
     20 C         138.3360  144.8622  155.7187 C.2     1  UNL1        0.2323
     21 C         138.7840  143.8217  156.7019 C.2     1  UNL1        0.0486
     22 C         137.8015  142.6891  156.6582 C.3     1  UNL1        0.2428
     23 C         141.6720  138.8993  164.0421 C.3     1  UNL1        0.0984
     24 C         140.4819  138.7020  164.9336 C.ar    1  UNL1       -0.0041
     25 C         139.5962  137.5055  164.7484 C.ar    1  UNL1       -0.0018
     26 C         138.4061  137.3082  165.6398 C.ar    1  UNL1        0.0111
     27 C         138.1016  138.3073  166.7164 C.ar    1  UNL1        0.0577
     28 CL        136.9114  138.1099  167.6079 Cl      1  UNL1       -0.0822
     29 C         138.9872  139.5037  166.9016 C.ar    1  UNL1        0.0111
     30 C         140.1774  139.7011  166.0102 C.ar    1  UNL1       -0.0018
     31 C         143.0445  139.0100  164.6370 C.3     1  UNL1        0.0504
     32 C         143.7849  140.3132  164.5773 C.ar    1  UNL1       -0.0202
     33 C         143.3339  141.4712  165.4174 C.ar    1  UNL1       -0.0042
     34 C         144.0744  142.7743  165.3576 C.ar    1  UNL1       -0.0003
     35 C         145.2657  142.9194  164.4578 C.ar    1  UNL1       -0.0000
     36 C         145.7167  141.7615  163.6178 C.ar    1  UNL1       -0.0003
     37 C         144.9763  140.4583  163.6775 C.ar    1  UNL1       -0.0042
@<TRIPOS>BOND
     1     5     6    1
     2     6     1    1
     3     1     2    2
     4     1     3   am
     5     3    23    1
     6    23    31    1
     7    31    32    1
     8    32    33   ar
     9    33    34   ar
    10    34    35   ar
    11    35    36   ar
    12    36    37   ar
    13    23    24    1
    14    24    25   ar
    15    25    26   ar
    16    26    27   ar
    17    27    28    1
    18    27    29   ar
    19    29    30   ar
    20     6     7    1
    21     7     8    1
    22     8     9    1
    23     9    14    1
    24    14    15    2
    25    15    16    1
    26    16    17    2
    27    17    18    1
    28    18    19    2
    29    19    20    1
    30    20    21    2
    31    21    22    1
    32     9    10    1
    33    10    11    1
    34    11     6    1
    35    37    32   ar
    36    30    24   ar
    37    22    14    1
    38    22    18    1
    39     5    12    1
    40     5    13    1
    41     3     4    1
