@<TRIPOS>MOLECULE
*****
 29 32 0 0 0
SMALL
GASTEIGER

@<TRIPOS>ATOM
      1 C         142.0833  142.1459  166.8878 C.3     1  UNL1        0.0037
      2 C         141.0450  141.5008  167.7571 C.3     1  UNL1        0.0390
      3 C         141.9907  142.3976  168.4995 C.3     1  UNL1        0.0113
      4 C         141.8440  142.5802  169.9811 C.3     1  UNL1        0.0646
      5 C         140.7515  141.8660  170.7202 C.2     1  UNL1        0.1507
      6 O         140.6047  142.0487  172.2019 O.2     1  UNL1       -0.2961
      7 C         139.8057  140.9692  169.9779 C.3     1  UNL1        0.0647
      8 C         139.9525  140.7866  168.4963 C.3     1  UNL1        0.0122
      9 C         139.1761  139.9731  167.5035 C.3     1  UNL1        0.0202
     10 C         139.7888  140.1846  166.1508 C.3     1  UNL1        0.0978
     11 C         140.9438  141.1287  166.3075 C.3     1  UNL1        0.1801
     12 N         139.3275  139.5613  164.8667 N.3     1  UNL1       -0.2697
     13 C         139.7632  138.1714  164.5087 C.3     1  UNL1        0.0722
     14 C         139.3019  137.5482  163.2247 C.3     1  UNL1        0.0187
     15 C         138.4048  138.3148  162.2987 C.3     1  UNL1        0.0183
     16 C         137.9691  139.7047  162.6567 C.3     1  UNL1        0.0670
     17 N         137.0721  140.4715  161.7307 N.3     1  UNL1       -0.3211
     18 C         138.4305  140.3280  163.9407 C.3     1  UNL1        0.0878
     19 H         136.8782  141.3905  162.1286 H       1  UNL1        0.1189
     20 H         136.1966  139.9630  161.6070 H       1  UNL1        0.1189
     21 O         141.8403  141.6154  165.2078 O.3     1  UNL1       -0.4778
     22 C         142.0928  140.7511  164.0081 C.ar    1  UNL1        0.1385
     23 C         142.9215  139.5078  164.1404 C.ar    1  UNL1        0.0376
     24 C         143.1740  138.6436  162.9407 C.ar    1  UNL1        0.0134
     25 C         142.5978  139.0226  161.6087 C.ar    1  UNL1        0.0686
     26 C         141.7691  140.2659  161.4763 C.ar    1  UNL1        0.0134
     27 C         141.5166  141.1301  162.6760 C.ar    1  UNL1        0.0376
     28 C         142.8503  138.1583  160.4090 C.1     1  UNL1        0.1004
     29 N         143.1027  137.2941  159.2093 N.1     1  UNL1       -0.1908
@<TRIPOS>BOND
     1     2     1    1
     2     2     3    1
     3     3     4    1
     4     4     5    1
     5     5     6    2
     6     5     7    1
     7     8     7    1
     8     8     9    1
     9     9    10    1
    10    10    12    1
    11    12    13    1
    12    13    14    1
    13    14    15    1
    14    15    16    1
    15    16    17    1
    16    16    18    1
    17    10    11    1
    18    11    21    1
    19    21    22    1
    20    22    23   ar
    21    23    24   ar
    22    24    25   ar
    23    25    28    1
    24    28    29    3
    25    25    26   ar
    26    26    27   ar
    27     8     2    1
    28    18    12    1
    29    27    22   ar
    30    11     2    1
    31    17    19    1
    32    17    20    1
@<TRIPOS>MOLECULE
*****
 29 32 0 0 0
SMALL
GASTEIGER

@<TRIPOS>ATOM
      1 C         138.8486  139.5024  167.3409 C.3     1  UNL1        0.0037
      2 C         140.0097  140.3626  167.7437 C.3     1  UNL1        0.0390
      3 C         139.0401  140.0872  168.8545 C.3     1  UNL1        0.0113
      4 C         139.2821  140.6588  170.2201 C.3     1  UNL1        0.0646
      5 C         140.4936  141.5057  170.4747 C.2     1  UNL1        0.1507
      6 O         140.7356  142.0772  171.8404 O.2     1  UNL1       -0.2961
      7 C         141.4632  141.7810  169.3639 C.3     1  UNL1        0.0647
      8 C         141.2213  141.2095  167.9984 C.3     1  UNL1        0.0122
      9 C         141.9952  141.3085  166.7173 C.3     1  UNL1        0.0202
     10 C         141.2620  140.5228  165.6708 C.3     1  UNL1        0.0978
     11 C         140.0349  139.9382  166.3052 C.3     1  UNL1        0.1801
     12 N         141.6821  140.3518  164.2410 N.3     1  UNL1       -0.2697
     13 C         141.4452  141.4549  163.2526 C.3     1  UNL1        0.0722
     14 C         141.8653  141.2839  161.8228 C.3     1  UNL1        0.0187
     15 C         142.5223  140.0097  161.3815 C.3     1  UNL1        0.0183
     16 C         142.7592  138.9066  162.3698 C.3     1  UNL1        0.0670
     17 N         143.4162  137.6324  161.9285 N.3     1  UNL1       -0.3211
     18 C         142.3391  139.0777  163.7996 C.3     1  UNL1        0.0878
     19 H         143.4973  136.9986  162.7235 H       1  UNL1        0.1189
     20 H         144.3454  137.8383  161.5617 H       1  UNL1        0.1189
     21 O         139.0124  139.0799  165.6211 O.3     1  UNL1       -0.4778
     22 C         138.6800  139.3155  164.1776 C.ar    1  UNL1        0.1385
     23 C         138.0590  140.6132  163.7529 C.ar    1  UNL1        0.0376
     24 C         137.7266  140.8486  162.3093 C.ar    1  UNL1        0.0134
     25 C         138.0154  139.7865  161.2903 C.ar    1  UNL1        0.0686
     26 C         138.6364  138.4888  161.7148 C.ar    1  UNL1        0.0134
     27 C         138.9688  138.2533  163.1585 C.ar    1  UNL1        0.0376
     28 C         137.6830  140.0220  159.8466 C.1     1  UNL1        0.1004
     29 N         137.3507  140.2575  158.4030 N.1     1  UNL1       -0.1908
@<TRIPOS>BOND
     1     2     1    1
     2     2     3    1
     3     3     4    1
     4     4     5    1
     5     5     6    2
     6     5     7    1
     7     8     7    1
     8     8     9    1
     9     9    10    1
    10    10    12    1
    11    12    13    1
    12    13    14    1
    13    14    15    1
    14    15    16    1
    15    16    17    1
    16    16    18    1
    17    10    11    1
    18    11    21    1
    19    21    22    1
    20    22    23   ar
    21    23    24   ar
    22    24    25   ar
    23    25    28    1
    24    28    29    3
    25    25    26   ar
    26    26    27   ar
    27     8     2    1
    28    18    12    1
    29    27    22   ar
    30    11     2    1
    31    17    19    1
    32    17    20    1
@<TRIPOS>MOLECULE
*****
 29 32 0 0 0
SMALL
GASTEIGER

@<TRIPOS>ATOM
      1 C         142.3820  142.2075  167.1323 C.3     1  UNL1        0.0037
      2 C         141.2763  141.5600  167.9121 C.3     1  UNL1        0.0390
      3 C         142.1293  142.4913  168.7214 C.3     1  UNL1        0.0113
      4 C         141.8365  142.7022  170.1773 C.3     1  UNL1        0.0646
      5 C         140.6906  141.9818  170.8239 C.2     1  UNL1        0.1507
      6 O         140.3978  142.1928  172.2799 O.2     1  UNL1       -0.2961
      7 C         139.8376  141.0506  170.0146 C.3     1  UNL1        0.0647
      8 C         140.1304  140.8396  168.5587 C.3     1  UNL1        0.0122
      9 C         139.4687  139.9899  167.5146 C.3     1  UNL1        0.0202
     10 C         140.2056  140.1850  166.2227 C.3     1  UNL1        0.0978
     11 C         141.3227  141.1554  166.4684 C.3     1  UNL1        0.1801
     12 N         139.8821  139.5255  164.9149 N.3     1  UNL1       -0.2697
     13 C         138.5837  139.8235  164.2256 C.3     1  UNL1        0.0722
     14 C         138.2602  139.1640  162.9177 C.3     1  UNL1        0.0187
     15 C         139.2352  138.2066  162.2992 C.3     1  UNL1        0.0183
     16 C         140.5337  137.9087  162.9884 C.3     1  UNL1        0.0670
     17 N         141.5088  136.9513  162.3698 N.3     1  UNL1       -0.3211
     18 C         140.8572  138.5682  164.2963 C.3     1  UNL1        0.0878
     19 H         142.3302  136.8681  162.9689 H       1  UNL1        0.1189
     20 H         141.7905  137.2979  161.4528 H       1  UNL1        0.1189
     21 O         142.3126  141.6367  165.4493 O.3     1  UNL1       -0.4778
     22 C         141.8441  142.4265  164.2633 C.ar    1  UNL1        0.1385
     23 C         141.7755  141.7803  162.9114 C.ar    1  UNL1        0.0376
     24 C         141.3070  142.5702  161.7254 C.ar    1  UNL1        0.0134
     25 C         140.9071  144.0063  161.8913 C.ar    1  UNL1        0.0686
     26 C         140.9757  144.6526  163.2432 C.ar    1  UNL1        0.0134
     27 C         141.4442  143.8627  164.4292 C.ar    1  UNL1        0.0376
     28 C         140.4386  144.7962  160.7053 C.1     1  UNL1        0.1004
     29 N         139.9701  145.5861  159.5193 N.1     1  UNL1       -0.1908
@<TRIPOS>BOND
     1     2     1    1
     2     2     3    1
     3     3     4    1
     4     4     5    1
     5     5     6    2
     6     5     7    1
     7     8     7    1
     8     8     9    1
     9     9    10    1
    10    10    12    1
    11    12    13    1
    12    13    14    1
    13    14    15    1
    14    15    16    1
    15    16    17    1
    16    16    18    1
    17    10    11    1
    18    11    21    1
    19    21    22    1
    20    22    23   ar
    21    23    24   ar
    22    24    25   ar
    23    25    28    1
    24    28    29    3
    25    25    26   ar
    26    26    27   ar
    27     8     2    1
    28    18    12    1
    29    27    22   ar
    30    11     2    1
    31    17    19    1
    32    17    20    1
@<TRIPOS>MOLECULE
*****
 29 32 0 0 0
SMALL
GASTEIGER

@<TRIPOS>ATOM
      1 C         140.4371  143.0617  166.8375 C.3     1  UNL1        0.0037
      2 C         140.6879  141.9291  167.7885 C.3     1  UNL1        0.0390
      3 C         140.3113  143.2168  168.4591 C.3     1  UNL1        0.0113
      4 C         140.2155  143.2836  169.9546 C.3     1  UNL1        0.0646
      5 C         140.4962  142.0626  170.7794 C.2     1  UNL1        0.1507
      6 O         140.4004  142.1294  172.2749 O.2     1  UNL1       -0.2961
      7 C         140.8728  140.7748  170.1087 C.3     1  UNL1        0.0647
      8 C         140.9686  140.7081  168.6133 C.3     1  UNL1        0.0122
      9 C         141.3148  139.5870  167.6788 C.3     1  UNL1        0.0202
     10 C         141.2480  140.1151  166.2764 C.3     1  UNL1        0.0978
     11 C         140.8605  141.5626  166.3443 C.3     1  UNL1        0.1801
     12 N         141.5207  139.3330  165.0258 N.3     1  UNL1       -0.2697
     13 C         140.4609  138.4385  164.4545 C.3     1  UNL1        0.0722
     14 C         140.7336  137.6564  163.2039 C.3     1  UNL1        0.0187
     15 C         142.0662  137.7689  162.5247 C.3     1  UNL1        0.0183
     16 C         143.1261  138.6634  163.0960 C.3     1  UNL1        0.0670
     17 N         144.4588  138.7759  162.4167 N.3     1  UNL1       -0.3211
     18 C         142.8534  139.4455  164.3466 C.3     1  UNL1        0.0878
     19 H         145.0522  139.4220  162.9372 H       1  UNL1        0.1189
     20 H         144.3281  139.1242  161.4670 H       1  UNL1        0.1189
     21 O         140.6778  142.4822  165.1734 O.3     1  UNL1       -0.4778
     22 C         140.0183  141.9819  163.9225 C.ar    1  UNL1        0.1385
     23 C         138.5740  141.5776  163.9462 C.ar    1  UNL1        0.0376
     24 C         137.9146  141.0773  162.6953 C.ar    1  UNL1        0.0134
     25 C         138.6994  140.9813  161.4206 C.ar    1  UNL1        0.0686
     26 C         140.1438  141.3856  161.3968 C.ar    1  UNL1        0.0134
     27 C         140.8032  141.8859  162.6478 C.ar    1  UNL1        0.0376
     28 C         138.0400  140.4810  160.1697 C.1     1  UNL1        0.1004
     29 N         137.3806  139.9807  158.9187 N.1     1  UNL1       -0.1908
@<TRIPOS>BOND
     1     2     1    1
     2     2     3    1
     3     3     4    1
     4     4     5    1
     5     5     6    2
     6     5     7    1
     7     8     7    1
     8     8     9    1
     9     9    10    1
    10    10    12    1
    11    12    13    1
    12    13    14    1
    13    14    15    1
    14    15    16    1
    15    16    17    1
    16    16    18    1
    17    10    11    1
    18    11    21    1
    19    21    22    1
    20    22    23   ar
    21    23    24   ar
    22    24    25   ar
    23    25    28    1
    24    28    29    3
    25    25    26   ar
    26    26    27   ar
    27     8     2    1
    28    18    12    1
    29    27    22   ar
    30    11     2    1
    31    17    19    1
    32    17    20    1
@<TRIPOS>MOLECULE
*****
 29 32 0 0 0
SMALL
GASTEIGER

@<TRIPOS>ATOM
      1 C         140.0064  140.4086  167.0971 C.3     1  UNL1        0.0037
      2 C         140.9721  141.1768  167.9500 C.3     1  UNL1        0.0390
      3 C         139.7388  140.7288  168.6768 C.3     1  UNL1        0.0113
      4 C         139.5621  141.0603  170.1290 C.3     1  UNL1        0.0646
      5 C         140.6187  141.8398  170.8543 C.2     1  UNL1        0.1507
      6 O         140.4419  142.1713  172.3065 O.2     1  UNL1       -0.2961
      7 C         141.8519  142.2878  170.1275 C.3     1  UNL1        0.0647
      8 C         142.0286  141.9563  168.6753 C.3     1  UNL1        0.0122
      9 C         143.1293  142.2612  167.7029 C.3     1  UNL1        0.0202
     10 C         142.7531  141.6701  166.3766 C.3     1  UNL1        0.0978
     11 C         141.4198  140.9999  166.5293 C.3     1  UNL1        0.1801
     12 N         143.5671  141.7374  165.1185 N.3     1  UNL1       -0.2697
     13 C         144.2928  140.5194  164.6287 C.3     1  UNL1        0.0722
     14 C         145.1069  140.5867  163.3707 C.3     1  UNL1        0.0187
     15 C         145.1953  141.8719  162.6023 C.3     1  UNL1        0.0183
     16 C         144.4696  143.0899  163.0921 C.3     1  UNL1        0.0670
     17 N         144.5579  144.3752  162.3238 N.3     1  UNL1       -0.3211
     18 C         143.6555  143.0226  164.3502 C.3     1  UNL1        0.0878
     19 H         144.0080  145.0924  162.7966 H       1  UNL1        0.1189
     20 H         144.1939  144.2338  161.3815 H       1  UNL1        0.1189
     21 O         140.6665  140.2794  165.4507 O.3     1  UNL1       -0.4778
     22 C         140.3964  140.9599  164.1416 C.ar    1  UNL1        0.1385
     23 C         140.9639  140.3968  162.8724 C.ar    1  UNL1        0.0376
     24 C         140.6937  141.0774  161.5633 C.ar    1  UNL1        0.0134
     25 C         139.8562  142.3211  161.5233 C.ar    1  UNL1        0.0686
     26 C         139.2887  142.8843  162.7925 C.ar    1  UNL1        0.0134
     27 C         139.5588  142.2037  164.1016 C.ar    1  UNL1        0.0376
     28 C         139.5860  143.0017  160.2142 C.1     1  UNL1        0.1004
     29 N         139.3159  143.6823  158.9051 N.1     1  UNL1       -0.1908
@<TRIPOS>BOND
     1     2     1    1
     2     2     3    1
     3     3     4    1
     4     4     5    1
     5     5     6    2
     6     5     7    1
     7     8     7    1
     8     8     9    1
     9     9    10    1
    10    10    12    1
    11    12    13    1
    12    13    14    1
    13    14    15    1
    14    15    16    1
    15    16    17    1
    16    16    18    1
    17    10    11    1
    18    11    21    1
    19    21    22    1
    20    22    23   ar
    21    23    24   ar
    22    24    25   ar
    23    25    28    1
    24    28    29    3
    25    25    26   ar
    26    26    27   ar
    27     8     2    1
    28    18    12    1
    29    27    22   ar
    30    11     2    1
    31    17    19    1
    32    17    20    1
@<TRIPOS>MOLECULE
*****
 29 32 0 0 0
SMALL
GASTEIGER

@<TRIPOS>ATOM
      1 C         143.0398  139.1039  167.3833 C.3     1  UNL1        0.0037
      2 C         142.1708  140.2667  167.7612 C.3     1  UNL1        0.0390
      3 C         142.4490  139.3203  168.8912 C.3     1  UNL1        0.0113
      4 C         141.8716  139.5845  170.2501 C.3     1  UNL1        0.0646
      5 C         141.0159  140.7951  170.4791 C.2     1  UNL1        0.1507
      6 O         140.4385  141.0593  171.8381 O.2     1  UNL1       -0.2961
      7 C         140.7377  141.7414  169.3491 C.3     1  UNL1        0.0647
      8 C         141.3151  141.4773  167.9902 C.3     1  UNL1        0.0122
      9 C         141.2150  142.2259  166.6942 C.3     1  UNL1        0.0202
     10 C         142.0087  141.4781  165.6643 C.3     1  UNL1        0.0978
     11 C         142.5994  140.2672  166.3238 C.3     1  UNL1        0.1801
     12 N         142.1815  141.8719  164.2273 N.3     1  UNL1       -0.2697
     13 C         141.1425  141.4903  163.2149 C.3     1  UNL1        0.0722
     14 C         141.3153  141.8841  161.7779 C.3     1  UNL1        0.0187
     15 C         142.5269  142.6597  161.3532 C.3     1  UNL1        0.0183
     16 C         143.5658  143.0413  162.3656 C.3     1  UNL1        0.0670
     17 N         144.7776  143.8169  161.9409 N.3     1  UNL1       -0.3211
     18 C         143.3931  142.6475  163.8026 C.3     1  UNL1        0.0878
     19 H         145.3728  143.9882  162.7513 H       1  UNL1        0.1189
     20 H         144.4871  144.7078  161.5381 H       1  UNL1        0.1189
     21 O         143.4666  139.2376  165.6620 O.3     1  UNL1       -0.4778
     22 C         143.2697  138.9115  164.2112 C.ar    1  UNL1        0.1385
     23 C         142.0513  138.1554  163.7711 C.ar    1  UNL1        0.0376
     24 C         141.8544  137.8293  162.3202 C.ar    1  UNL1        0.0134
     25 C         142.8759  138.2594  161.3095 C.ar    1  UNL1        0.0686
     26 C         144.0944  139.0155  161.7496 C.ar    1  UNL1        0.0134
     27 C         144.2912  139.3416  163.2004 C.ar    1  UNL1        0.0376
     28 C         142.6790  137.9333  159.8587 C.1     1  UNL1        0.1004
     29 N         142.4822  137.6073  158.4079 N.1     1  UNL1       -0.1908
@<TRIPOS>BOND
     1     2     1    1
     2     2     3    1
     3     3     4    1
     4     4     5    1
     5     5     6    2
     6     5     7    1
     7     8     7    1
     8     8     9    1
     9     9    10    1
    10    10    12    1
    11    12    13    1
    12    13    14    1
    13    14    15    1
    14    15    16    1
    15    16    17    1
    16    16    18    1
    17    10    11    1
    18    11    21    1
    19    21    22    1
    20    22    23   ar
    21    23    24   ar
    22    24    25   ar
    23    25    28    1
    24    28    29    3
    25    25    26   ar
    26    26    27   ar
    27     8     2    1
    28    18    12    1
    29    27    22   ar
    30    11     2    1
    31    17    19    1
    32    17    20    1
@<TRIPOS>MOLECULE
*****
 29 32 0 0 0
SMALL
GASTEIGER

@<TRIPOS>ATOM
      1 C         139.6427  140.3978  166.7497 C.3     1  UNL1        0.0037
      2 C         140.7179  140.9527  167.6363 C.3     1  UNL1        0.0390
      3 C         139.5450  140.3867  168.3806 C.3     1  UNL1        0.0113
      4 C         139.5256  140.4115  169.8802 C.3     1  UNL1        0.0646
      5 C         140.6791  141.0023  170.6356 C.2     1  UNL1        0.1507
      6 O         140.6597  141.0270  172.1353 O.2     1  UNL1       -0.2961
      7 C         141.8519  141.5683  169.8913 C.3     1  UNL1        0.0647
      8 C         141.8713  141.5435  168.3916 C.3     1  UNL1        0.0122
      9 C         142.8824  142.0233  167.3928 C.3     1  UNL1        0.0202
     10 C         142.3538  141.7290  166.0202 C.3     1  UNL1        0.0978
     11 C         141.0161  141.0674  166.1707 C.3     1  UNL1        0.1801
     12 N         143.0422  142.0415  164.7247 N.3     1  UNL1       -0.2697
     13 C         144.1137  141.1293  164.2056 C.3     1  UNL1        0.0722
     14 C         144.8021  141.4418  162.9100 C.3     1  UNL1        0.0187
     15 C         144.4189  142.6666  162.1335 C.3     1  UNL1        0.0183
     16 C         143.3473  143.5788  162.6526 C.3     1  UNL1        0.0670
     17 N         142.9641  144.8037  161.8761 N.3     1  UNL1       -0.3211
     18 C         142.6590  143.2663  163.9482 C.3     1  UNL1        0.0878
     19 H         142.2258  145.3033  162.3717 H       1  UNL1        0.1189
     20 H         142.6284  144.5297  160.9527 H       1  UNL1        0.1189
     21 O         140.1318  140.6021  165.0520 O.3     1  UNL1       -0.4778
     22 C         140.7332  139.9529  163.8410 C.ar    1  UNL1        0.1385
     23 C         141.4465  138.6397  163.9701 C.ar    1  UNL1        0.0376
     24 C         142.0479  137.9905  162.7589 C.ar    1  UNL1        0.0134
     25 C         141.9361  138.6545  161.4186 C.ar    1  UNL1        0.0686
     26 C         141.2228  139.9678  161.2894 C.ar    1  UNL1        0.0134
     27 C         140.6214  140.6169  162.5005 C.ar    1  UNL1        0.0376
     28 C         142.5375  138.0054  160.2075 C.1     1  UNL1        0.1004
     29 N         143.1389  137.3563  158.9963 N.1     1  UNL1       -0.1908
@<TRIPOS>BOND
     1     2     1    1
     2     2     3    1
     3     3     4    1
     4     4     5    1
     5     5     6    2
     6     5     7    1
     7     8     7    1
     8     8     9    1
     9     9    10    1
    10    10    12    1
    11    12    13    1
    12    13    14    1
    13    14    15    1
    14    15    16    1
    15    16    17    1
    16    16    18    1
    17    10    11    1
    18    11    21    1
    19    21    22    1
    20    22    23   ar
    21    23    24   ar
    22    24    25   ar
    23    25    28    1
    24    28    29    3
    25    25    26   ar
    26    26    27   ar
    27     8     2    1
    28    18    12    1
    29    27    22   ar
    30    11     2    1
    31    17    19    1
    32    17    20    1
@<TRIPOS>MOLECULE
*****
 29 32 0 0 0
SMALL
GASTEIGER

@<TRIPOS>ATOM
      1 C         143.4824  142.3023  167.4136 C.3     1  UNL1        0.0037
      2 C         142.0664  142.4466  167.8872 C.3     1  UNL1        0.0390
      3 C         143.0391  142.0898  168.9718 C.3     1  UNL1        0.0113
      4 C         142.5583  141.9107  170.3813 C.3     1  UNL1        0.0646
      5 C         141.1047  142.0882  170.7061 C.2     1  UNL1        0.1507
      6 O         140.6238  141.9091  172.1157 O.2     1  UNL1       -0.2961
      7 C         140.1320  142.4450  169.6215 C.3     1  UNL1        0.0647
      8 C         140.6128  142.6242  168.2120 C.3     1  UNL1        0.0122
      9 C         139.8936  142.9733  166.9429 C.3     1  UNL1        0.0202
     10 C         140.9026  143.0116  165.8337 C.3     1  UNL1        0.0978
     11 C         142.2455  142.6860  166.4173 C.3     1  UNL1        0.1801
     12 N         140.6186  143.3210  164.3937 N.3     1  UNL1       -0.2697
     13 C         140.3608  142.2062  163.4237 C.3     1  UNL1        0.0722
     14 C         140.0768  142.5157  161.9837 C.3     1  UNL1        0.0187
     15 C         140.0506  143.9398  161.5137 C.3     1  UNL1        0.0183
     16 C         140.3084  145.0546  162.4836 C.3     1  UNL1        0.0670
     17 N         140.2822  146.4789  162.0136 N.3     1  UNL1       -0.3211
     18 C         140.5924  144.7452  163.9236 C.3     1  UNL1        0.0878
     19 H         140.4768  147.0998  162.7991 H       1  UNL1        0.1189
     20 H         139.3616  146.6936  161.6304 H       1  UNL1        0.1189
     21 O         143.5402  142.6127  165.6634 O.3     1  UNL1       -0.4778
     22 C         143.5953  141.9226  164.3328 C.ar    1  UNL1        0.1385
     23 C         143.3494  140.4456  164.2431 C.ar    1  UNL1        0.0376
     24 C         143.4045  139.7555  162.9124 C.ar    1  UNL1        0.0134
     25 C         143.7056  140.5424  161.6714 C.ar    1  UNL1        0.0686
     26 C         143.9515  142.0194  161.7610 C.ar    1  UNL1        0.0134
     27 C         143.8964  142.7095  163.0917 C.ar    1  UNL1        0.0376
     28 C         143.7607  139.8523  160.3407 C.1     1  UNL1        0.1004
     29 N         143.8158  139.1622  159.0100 N.1     1  UNL1       -0.1908
@<TRIPOS>BOND
     1     2     1    1
     2     2     3    1
     3     3     4    1
     4     4     5    1
     5     5     6    2
     6     5     7    1
     7     8     7    1
     8     8     9    1
     9     9    10    1
    10    10    12    1
    11    12    13    1
    12    13    14    1
    13    14    15    1
    14    15    16    1
    15    16    17    1
    16    16    18    1
    17    10    11    1
    18    11    21    1
    19    21    22    1
    20    22    23   ar
    21    23    24   ar
    22    24    25   ar
    23    25    28    1
    24    28    29    3
    25    25    26   ar
    26    26    27   ar
    27     8     2    1
    28    18    12    1
    29    27    22   ar
    30    11     2    1
    31    17    19    1
    32    17    20    1
@<TRIPOS>MOLECULE
*****
 29 32 0 0 0
SMALL
GASTEIGER

@<TRIPOS>ATOM
      1 C         141.3246  139.8562  166.7809 C.3     1  UNL1        0.0037
      2 C         140.8748  141.0104  167.6269 C.3     1  UNL1        0.0390
      3 C         141.2698  139.7953  168.4127 C.3     1  UNL1        0.0113
      4 C         141.1932  139.8134  169.9106 C.3     1  UNL1        0.0646
      5 C         140.7216  141.0465  170.6227 C.2     1  UNL1        0.1507
      6 O         140.6450  141.0645  172.1207 O.2     1  UNL1       -0.2961
      7 C         140.3265  142.2615  169.8369 C.3     1  UNL1        0.0647
      8 C         140.4031  142.2435  168.3390 C.3     1  UNL1        0.0122
      9 C         140.0825  143.2817  167.3049 C.3     1  UNL1        0.0202
     10 C         140.3560  142.6904  165.9538 C.3     1  UNL1        0.0978
     11 C         140.8456  141.2866  166.1528 C.3     1  UNL1        0.1801
     12 N         140.1721  143.3815  164.6353 N.3     1  UNL1       -0.2697
     13 C         138.7976  143.5367  164.0551 C.3     1  UNL1        0.0722
     14 C         138.6138  144.2277  162.7365 C.3     1  UNL1        0.0187
     15 C         139.8044  144.7636  161.9982 C.3     1  UNL1        0.0183
     16 C         141.1788  144.6084  162.5784 C.3     1  UNL1        0.0670
     17 N         142.3695  145.1443  161.8400 N.3     1  UNL1       -0.3211
     18 C         141.3627  143.9174  163.8969 C.3     1  UNL1        0.0878
     19 H         143.2162  144.9526  162.3754 H       1  UNL1        0.1189
     20 H         142.2671  146.1515  161.7150 H       1  UNL1        0.1189
     21 O         141.2373  140.3274  165.0682 O.3     1  UNL1       -0.4778
     22 C         140.4747  140.3033  163.7768 C.ar    1  UNL1        0.1385
     23 C         141.1633  140.6583  162.4923 C.ar    1  UNL1        0.0376
     24 C         140.4006  140.6342  161.2010 C.ar    1  UNL1        0.0134
     25 C         138.9494  140.2551  161.1939 C.ar    1  UNL1        0.0686
     26 C         138.2607  139.9000  162.4784 C.ar    1  UNL1        0.0134
     27 C         139.0234  139.9242  163.7698 C.ar    1  UNL1        0.0376
     28 C         138.1867  140.2310  159.9025 C.1     1  UNL1        0.1004
     29 N         137.4240  140.2068  158.6112 N.1     1  UNL1       -0.1908
@<TRIPOS>BOND
     1     2     1    1
     2     2     3    1
     3     3     4    1
     4     4     5    1
     5     5     6    2
     6     5     7    1
     7     8     7    1
     8     8     9    1
     9     9    10    1
    10    10    12    1
    11    12    13    1
    12    13    14    1
    13    14    15    1
    14    15    16    1
    15    16    17    1
    16    16    18    1
    17    10    11    1
    18    11    21    1
    19    21    22    1
    20    22    23   ar
    21    23    24   ar
    22    24    25   ar
    23    25    28    1
    24    28    29    3
    25    25    26   ar
    26    26    27   ar
    27     8     2    1
    28    18    12    1
    29    27    22   ar
    30    11     2    1
    31    17    19    1
    32    17    20    1
