@<TRIPOS>MOLECULE
*****
 28 30 0 0 0
SMALL
GASTEIGER

@<TRIPOS>ATOM
      1 C         138.7984  140.7398  159.3140 C.3     1  UNL1        0.0964
      2 C         138.8613  140.0449  157.9861 C.3     1  UNL1        0.0901
      3 N         139.4689  138.6902  158.2002 N.3     1  UNL1       -0.2700
      4 C         139.7198  137.6590  157.1403 C.3     1  UNL1        0.0897
      5 C         139.7816  138.5480  159.6604 C.3     1  UNL1        0.0780
      6 C         139.3672  139.8147  160.3487 C.3     1  UNL1        0.0557
      7 C         139.4985  140.1053  161.8145 C.ar    1  UNL1       -0.0197
      8 C         138.2996  140.0020  162.7099 C.ar    1  UNL1       -0.0042
      9 C         138.4310  140.2926  164.1756 C.ar    1  UNL1       -0.0003
     10 C         139.7613  140.6864  164.7458 C.ar    1  UNL1       -0.0000
     11 C         140.9602  140.7897  163.8504 C.ar    1  UNL1       -0.0003
     12 C         140.8288  140.4992  162.3847 C.ar    1  UNL1       -0.0042
     13 C         139.8926  140.9770  166.2116 C.ar    1  UNL1        0.0000
     14 C         140.4506  142.2923  166.6684 C.ar    1  UNL1        0.0007
     15 C         140.5819  142.5828  168.1342 C.ar    1  UNL1        0.0103
     16 C         140.1553  141.5581  169.1431 C.ar    1  UNL1        0.0684
     17 C         139.5973  140.2427  168.6862 C.ar    1  UNL1        0.0103
     18 C         139.4660  139.9522  167.2205 C.ar    1  UNL1        0.0007
     19 C         140.2866  141.8486  170.6087 C.1     1  UNL1        0.1004
     20 N         140.4179  142.1391  172.0744 N.1     1  UNL1       -0.1908
     21 N         138.2611  142.1179  159.5632 N.3     1  UNL1       -0.1830
     22 H         138.2235  142.5874  158.6585 H       1  UNL1        0.1484
     23 S         138.9766  143.0435  160.5019 S.O2    1  UNL1        0.0390
     24 O         140.2022  142.9701  159.6401 O.2     1  UNL1       -0.1576
     25 O         137.7512  143.1171  161.3636 O.2     1  UNL1       -0.1576
     26 C         139.3044  144.0159  162.8887 C.3     1  UNL1        0.0270
     27 C         139.6922  143.9692  161.4405 C.3     1  UNL1        0.1457
     28 C         140.7957  144.8482  160.9309 C.3     1  UNL1        0.0270
@<TRIPOS>BOND
     1    26    27    1
     2    27    28    1
     3    27    23    1
     4    23    24    2
     5    23    25    2
     6    23    21    1
     7     1    21    1
     8     1     2    1
     9     2     3    1
    10     3     4    1
    11     3     5    1
    12     5     6    1
    13     6     7    1
    14     7     8   ar
    15     8     9   ar
    16     9    10   ar
    17    10    13    1
    18    13    14   ar
    19    14    15   ar
    20    15    16   ar
    21    16    19    1
    22    19    20    3
    23    16    17   ar
    24    17    18   ar
    25    10    11   ar
    26    11    12   ar
    27     6     1    1
    28    12     7   ar
    29    18    13   ar
    30    21    22    1
@<TRIPOS>MOLECULE
*****
 28 30 0 0 0
SMALL
GASTEIGER

@<TRIPOS>ATOM
      1 C         138.4151  140.1586  159.3707 C.3     1  UNL1        0.0964
      2 C         138.1897  140.5704  157.9461 C.3     1  UNL1        0.0901
      3 N         138.2796  142.0661  157.8761 N.3     1  UNL1       -0.2700
      4 C         138.1170  142.9024  156.6415 C.3     1  UNL1        0.0897
      5 C         138.5606  142.5786  159.2575 C.3     1  UNL1        0.0780
      6 C         138.6444  141.3997  160.1812 C.3     1  UNL1        0.0557
      7 C         138.9107  141.4527  161.6565 C.ar    1  UNL1       -0.0197
      8 C         137.7773  141.3115  162.6287 C.ar    1  UNL1       -0.0042
      9 C         138.0436  141.3645  164.1039 C.ar    1  UNL1       -0.0003
     10 C         139.4434  141.5587  164.6068 C.ar    1  UNL1       -0.0000
     11 C         140.5768  141.6999  163.6346 C.ar    1  UNL1       -0.0003
     12 C         140.3105  141.6469  162.1594 C.ar    1  UNL1       -0.0042
     13 C         139.7097  141.6117  166.0821 C.ar    1  UNL1        0.0000
     14 C         140.2553  142.8643  166.7012 C.ar    1  UNL1        0.0007
     15 C         140.5216  142.9173  168.1765 C.ar    1  UNL1        0.0103
     16 C         140.2423  141.7177  169.0326 C.ar    1  UNL1        0.0684
     17 C         139.6967  140.4650  168.4134 C.ar    1  UNL1        0.0103
     18 C         139.4304  140.4121  166.9382 C.ar    1  UNL1        0.0007
     19 C         140.5086  141.7706  170.5078 C.1     1  UNL1        0.1004
     20 N         140.7749  141.8236  171.9830 N.1     1  UNL1       -0.1908
     21 N         138.4119  138.7525  159.8930 N.3     1  UNL1       -0.1830
     22 H         137.4769  138.5772  160.2609 H       1  UNL1        0.1484
     23 S         139.3813  138.3478  160.9637 S.O2    1  UNL1        0.0390
     24 O         138.2374  138.0539  161.8883 O.2     1  UNL1       -0.1576
     25 O         140.5253  138.6417  160.0391 O.2     1  UNL1       -0.1576
     26 C         141.8128  137.8308  161.7190 C.3     1  UNL1        0.0270
     27 C         140.3507  137.9431  162.0345 C.3     1  UNL1        0.1457
     28 C         139.8579  137.6507  163.4207 C.3     1  UNL1        0.0270
@<TRIPOS>BOND
     1    26    27    1
     2    27    28    1
     3    27    23    1
     4    23    24    2
     5    23    25    2
     6    23    21    1
     7     1    21    1
     8     1     2    1
     9     2     3    1
    10     3     4    1
    11     3     5    1
    12     5     6    1
    13     6     7    1
    14     7     8   ar
    15     8     9   ar
    16     9    10   ar
    17    10    13    1
    18    13    14   ar
    19    14    15   ar
    20    15    16   ar
    21    16    19    1
    22    19    20    3
    23    16    17   ar
    24    17    18   ar
    25    10    11   ar
    26    11    12   ar
    27     6     1    1
    28    12     7   ar
    29    18    13   ar
    30    21    22    1
@<TRIPOS>MOLECULE
*****
 28 30 0 0 0
SMALL
GASTEIGER

@<TRIPOS>ATOM
      1 C         142.2866  138.3541  159.3539 C.3     1  UNL1        0.0964
      2 C         141.8781  138.1114  157.9311 C.3     1  UNL1        0.0901
      3 N         140.3798  138.1418  157.8673 N.3     1  UNL1       -0.2700
      4 C         139.5455  137.9452  156.6363 C.3     1  UNL1        0.0897
      5 C         139.8622  138.4032  159.2507 C.3     1  UNL1        0.0780
      6 C         141.0407  138.5344  160.1695 C.3     1  UNL1        0.0557
      7 C         140.9832  138.7994  161.6448 C.ar    1  UNL1       -0.0197
      8 C         140.7534  140.1937  162.1479 C.ar    1  UNL1       -0.0042
      9 C         140.6960  140.4587  163.6232 C.ar    1  UNL1       -0.0003
     10 C         140.8684  139.3294  164.5953 C.ar    1  UNL1       -0.0000
     11 C         141.0982  137.9351  164.0922 C.ar    1  UNL1       -0.0003
     12 C         141.1556  137.6702  162.6169 C.ar    1  UNL1       -0.0042
     13 C         140.8110  139.5944  166.0707 C.ar    1  UNL1        0.0000
     14 C         142.0691  139.5681  166.8869 C.ar    1  UNL1        0.0007
     15 C         142.0117  139.8331  168.3623 C.ar    1  UNL1        0.0103
     16 C         140.6961  140.1244  169.0212 C.ar    1  UNL1        0.0684
     17 C         139.4379  140.1508  168.2049 C.ar    1  UNL1        0.0103
     18 C         139.4953  139.8857  166.7296 C.ar    1  UNL1        0.0007
     19 C         140.6386  140.3895  170.4965 C.1     1  UNL1        0.1004
     20 N         140.5811  140.6545  171.9717 N.1     1  UNL1       -0.1908
     21 N         143.6938  138.4071  159.8704 N.3     1  UNL1       -0.1830
     22 H         143.9118  137.4767  160.2270 H       1  UNL1        0.1484
     23 S         144.0603  139.3815  160.9502 S.O2    1  UNL1        0.0390
     24 O         143.8423  140.5194  159.9974 O.2     1  UNL1       -0.1576
     25 O         144.2784  138.2438  161.9030 O.2     1  UNL1       -0.1576
     26 C         144.5270  139.8951  163.4539 C.3     1  UNL1        0.0270
     27 C         144.4268  140.3560  162.0300 C.3     1  UNL1        0.1457
     28 C         144.6931  141.7915  161.6859 C.3     1  UNL1        0.0270
@<TRIPOS>BOND
     1    26    27    1
     2    27    28    1
     3    27    23    1
     4    23    24    2
     5    23    25    2
     6    23    21    1
     7     1    21    1
     8     1     2    1
     9     2     3    1
    10     3     4    1
    11     3     5    1
    12     5     6    1
    13     6     7    1
    14     7     8   ar
    15     8     9   ar
    16     9    10   ar
    17    10    13    1
    18    13    14   ar
    19    14    15   ar
    20    15    16   ar
    21    16    19    1
    22    19    20    3
    23    16    17   ar
    24    17    18   ar
    25    10    11   ar
    26    11    12   ar
    27     6     1    1
    28    12     7   ar
    29    18    13   ar
    30    21    22    1
@<TRIPOS>MOLECULE
*****
 28 30 0 0 0
SMALL
GASTEIGER

@<TRIPOS>ATOM
      1 C         142.4996  143.8664  159.3049 C.3     1  UNL1        0.0964
      2 C         143.1358  143.6699  157.9607 C.3     1  UNL1        0.0901
      3 N         144.2682  142.6993  158.1212 N.3     1  UNL1       -0.2700
      4 C         145.1773  142.2168  157.0300 C.3     1  UNL1        0.0897
      5 C         144.3319  142.2960  159.5645 C.3     1  UNL1        0.0780
      6 C         143.2389  143.0173  160.2961 C.3     1  UNL1        0.0557
      7 C         142.9379  142.9085  161.7616 C.ar    1  UNL1       -0.0197
      8 C         142.1621  141.7353  162.2829 C.ar    1  UNL1       -0.0042
      9 C         141.8612  141.6266  163.7483 C.ar    1  UNL1       -0.0003
     10 C         142.3361  142.6910  164.6925 C.ar    1  UNL1       -0.0000
     11 C         143.1119  143.8642  164.1712 C.ar    1  UNL1       -0.0003
     12 C         143.4128  143.9729  162.7058 C.ar    1  UNL1       -0.0042
     13 C         142.0352  142.5822  166.1580 C.ar    1  UNL1        0.0000
     14 C         143.1335  142.2594  167.1273 C.ar    1  UNL1        0.0007
     15 C         142.8326  142.1507  168.5928 C.ar    1  UNL1        0.0103
     16 C         141.4333  142.3647  169.0890 C.ar    1  UNL1        0.0684
     17 C         140.3350  142.6874  168.1197 C.ar    1  UNL1        0.0103
     18 C         140.6359  142.7962  166.6542 C.ar    1  UNL1        0.0007
     19 C         141.1323  142.2559  170.5544 C.1     1  UNL1        0.1004
     20 N         140.8314  142.1471  172.0199 N.1     1  UNL1       -0.1908
     21 N         141.3297  144.7558  159.6050 N.3     1  UNL1       -0.1830
     22 H         141.7106  145.6379  159.9474 H       1  UNL1        0.1484
     23 S         140.2905  144.3197  160.5948 S.O2    1  UNL1        0.0390
     24 O         140.6415  145.4822  161.4755 O.2     1  UNL1       -0.1576
     25 O         139.9394  143.1574  159.7142 O.2     1  UNL1       -0.1576
     26 C         138.4487  142.6420  161.3318 C.3     1  UNL1        0.0270
     27 C         139.2512  143.8838  161.5847 C.3     1  UNL1        0.1457
     28 C         139.0144  144.6896  162.8275 C.3     1  UNL1        0.0270
@<TRIPOS>BOND
     1    26    27    1
     2    27    28    1
     3    27    23    1
     4    23    24    2
     5    23    25    2
     6    23    21    1
     7     1    21    1
     8     1     2    1
     9     2     3    1
    10     3     4    1
    11     3     5    1
    12     5     6    1
    13     6     7    1
    14     7     8   ar
    15     8     9   ar
    16     9    10   ar
    17    10    13    1
    18    13    14   ar
    19    14    15   ar
    20    15    16   ar
    21    16    19    1
    22    19    20    3
    23    16    17   ar
    24    17    18   ar
    25    10    11   ar
    26    11    12   ar
    27     6     1    1
    28    12     7   ar
    29    18    13   ar
    30    21    22    1
@<TRIPOS>MOLECULE
*****
 28 30 0 0 0
SMALL
GASTEIGER

@<TRIPOS>ATOM
      1 C         140.0822  138.5613  159.1785 C.3     1  UNL1        0.0964
      2 C         140.6030  138.2075  157.8170 C.3     1  UNL1        0.0901
      3 N         142.0674  137.9084  157.9441 N.3     1  UNL1       -0.2700
      4 C         142.9861  137.5102  156.8273 C.3     1  UNL1        0.0897
      5 C         142.4516  138.0774  159.3842 C.3     1  UNL1        0.0780
      6 C         141.2248  138.4809  160.1471 C.3     1  UNL1        0.0557
      7 C         141.1531  138.7558  161.6200 C.ar    1  UNL1       -0.0197
      8 C         140.6497  137.6980  162.5567 C.ar    1  UNL1       -0.0042
      9 C         140.5780  137.9729  164.0295 C.ar    1  UNL1       -0.0003
     10 C         141.0097  139.3056  164.5656 C.ar    1  UNL1       -0.0000
     11 C         141.5131  140.3635  163.6289 C.ar    1  UNL1       -0.0003
     12 C         141.5848  140.0886  162.1561 C.ar    1  UNL1       -0.0042
     13 C         140.9380  139.5805  166.0385 C.ar    1  UNL1        0.0000
     14 C         142.1854  139.5402  166.8706 C.ar    1  UNL1        0.0007
     15 C         142.1137  139.8151  168.3435 C.ar    1  UNL1        0.0103
     16 C         140.7945  140.1303  168.9842 C.ar    1  UNL1        0.0684
     17 C         139.5471  140.1706  168.1521 C.ar    1  UNL1        0.0103
     18 C         139.6189  139.8957  166.6793 C.ar    1  UNL1        0.0007
     19 C         140.7228  140.4051  170.4571 C.1     1  UNL1        0.1004
     20 N         140.6510  140.6800  171.9299 N.1     1  UNL1       -0.1908
     21 N         138.6674  138.9307  159.5127 N.3     1  UNL1       -0.1830
     22 H         138.2188  139.2001  158.6371 H       1  UNL1        0.1484
     23 S         138.3912  140.0288  160.4964 S.O2    1  UNL1        0.0390
     24 O         137.6895  139.0506  161.3913 O.2     1  UNL1       -0.1576
     25 O         139.0928  141.0070  159.6017 O.2     1  UNL1       -0.1576
     26 C         137.6749  140.7915  162.8745 C.3     1  UNL1        0.0270
     27 C         138.1150  141.1269  161.4803 C.3     1  UNL1        0.1457
     28 C         138.2788  142.5603  161.0699 C.3     1  UNL1        0.0270
@<TRIPOS>BOND
     1    26    27    1
     2    27    28    1
     3    27    23    1
     4    23    24    2
     5    23    25    2
     6    23    21    1
     7     1    21    1
     8     1     2    1
     9     2     3    1
    10     3     4    1
    11     3     5    1
    12     5     6    1
    13     6     7    1
    14     7     8   ar
    15     8     9   ar
    16     9    10   ar
    17    10    13    1
    18    13    14   ar
    19    14    15   ar
    20    15    16   ar
    21    16    19    1
    22    19    20    3
    23    16    17   ar
    24    17    18   ar
    25    10    11   ar
    26    11    12   ar
    27     6     1    1
    28    12     7   ar
    29    18    13   ar
    30    21    22    1
@<TRIPOS>MOLECULE
*****
 28 30 0 0 0
SMALL
GASTEIGER

@<TRIPOS>ATOM
      1 C         139.9002  143.2722  159.1147 C.3     1  UNL1        0.0964
      2 C         140.2790  143.4498  157.6742 C.3     1  UNL1        0.0901
      3 N         141.7711  143.5852  157.6006 N.3     1  UNL1       -0.2700
      4 C         142.5782  143.7802  156.3514 C.3     1  UNL1        0.0897
      5 C         142.3144  143.4913  158.9956 C.3     1  UNL1        0.0780
      6 C         141.1581  143.2979  159.9314 C.3     1  UNL1        0.0557
      7 C         141.2445  143.1552  161.4221 C.ar    1  UNL1       -0.0197
      8 C         141.6187  141.8354  162.0288 C.ar    1  UNL1       -0.0042
      9 C         141.7051  141.6928  163.5194 C.ar    1  UNL1       -0.0003
     10 C         141.4174  142.8700  164.4034 C.ar    1  UNL1       -0.0000
     11 C         141.0433  144.1898  163.7968 C.ar    1  UNL1       -0.0003
     12 C         140.9568  144.3324  162.3061 C.ar    1  UNL1       -0.0042
     13 C         141.5039  142.7273  165.8942 C.ar    1  UNL1        0.0000
     14 C         142.8028  142.3397  166.5364 C.ar    1  UNL1        0.0007
     15 C         142.8893  142.1970  168.0272 C.ar    1  UNL1        0.0103
     16 C         141.6768  142.4419  168.8756 C.ar    1  UNL1        0.0684
     17 C         140.3778  142.8295  168.2333 C.ar    1  UNL1        0.0103
     18 C         140.2914  142.9722  166.7426 C.ar    1  UNL1        0.0007
     19 C         141.7632  142.2992  170.3663 C.1     1  UNL1        0.1004
     20 N         141.8496  142.1566  171.8569 N.1     1  UNL1       -0.1908
     21 N         138.5078  143.0994  159.6452 N.3     1  UNL1       -0.1830
     22 H         138.2231  144.0023  160.0247 H       1  UNL1        0.1484
     23 S         138.2314  142.0769  160.7073 S.O2    1  UNL1        0.0390
     24 O         138.7564  140.9988  159.8060 O.2     1  UNL1       -0.1576
     25 O         137.7065  143.1548  161.6085 O.2     1  UNL1       -0.1576
     26 C         137.8272  139.6059  161.4007 C.3     1  UNL1        0.0270
     27 C         137.9550  141.0542  161.7693 C.3     1  UNL1        0.1457
     28 C         137.8064  141.4800  163.1999 C.3     1  UNL1        0.0270
@<TRIPOS>BOND
     1    26    27    1
     2    27    28    1
     3    27    23    1
     4    23    24    2
     5    23    25    2
     6    23    21    1
     7     1    21    1
     8     1     2    1
     9     2     3    1
    10     3     4    1
    11     3     5    1
    12     5     6    1
    13     6     7    1
    14     7     8   ar
    15     8     9   ar
    16     9    10   ar
    17    10    13    1
    18    13    14   ar
    19    14    15   ar
    20    15    16   ar
    21    16    19    1
    22    19    20    3
    23    16    17   ar
    24    17    18   ar
    25    10    11   ar
    26    11    12   ar
    27     6     1    1
    28    12     7   ar
    29    18    13   ar
    30    21    22    1
@<TRIPOS>MOLECULE
*****
 28 30 0 0 0
SMALL
GASTEIGER

@<TRIPOS>ATOM
      1 C         143.6793  139.8466  159.8550 C.3     1  UNL1        0.0964
      2 C         144.0632  140.1815  158.4442 C.3     1  UNL1        0.0901
      3 N         144.1477  141.6747  158.3288 N.3     1  UNL1       -0.2700
      4 C         144.5018  142.4448  157.0912 C.3     1  UNL1        0.0897
      5 C         143.8161  142.2626  159.6684 C.3     1  UNL1        0.0780
      6 C         143.5266  141.1327  160.6116 C.3     1  UNL1        0.0557
      7 C         143.1504  141.2657  162.0576 C.ar    1  UNL1       -0.0197
      8 C         144.2001  141.1339  163.1209 C.ar    1  UNL1       -0.0042
      9 C         143.8239  141.2669  164.5668 C.ar    1  UNL1       -0.0003
     10 C         142.3979  141.5318  164.9494 C.ar    1  UNL1       -0.0000
     11 C         141.3481  141.6636  163.8862 C.ar    1  UNL1       -0.0003
     12 C         141.7244  141.5306  162.4402 C.ar    1  UNL1       -0.0042
     13 C         142.0217  141.6648  166.3954 C.ar    1  UNL1        0.0000
     14 C         140.6517  141.2615  166.8541 C.ar    1  UNL1        0.0007
     15 C         140.2754  141.3946  168.3001 C.ar    1  UNL1        0.0103
     16 C         141.2693  141.9308  169.2874 C.ar    1  UNL1        0.0684
     17 C         142.6394  142.3340  168.8286 C.ar    1  UNL1        0.0103
     18 C         143.0155  142.2010  167.3827 C.ar    1  UNL1        0.0007
     19 C         140.8932  142.0638  170.7333 C.1     1  UNL1        0.1004
     20 N         140.5170  142.1968  172.1792 N.1     1  UNL1       -0.1908
     21 N         143.4827  138.4676  160.4115 N.3     1  UNL1       -0.1830
     22 H         143.4951  137.8257  159.6189 H       1  UNL1        0.1484
     23 S         142.2523  138.1485  161.2078 S.O2    1  UNL1        0.0390
     24 O         141.4020  138.4170  160.0015 O.2     1  UNL1       -0.1576
     25 O         143.1025  137.8799  162.4140 O.2     1  UNL1       -0.1576
     26 C         139.6648  138.1326  161.4414 C.3     1  UNL1        0.0270
     27 C         141.0218  137.8293  162.0040 C.3     1  UNL1        0.1457
     28 C         141.1482  137.2070  163.3629 C.3     1  UNL1        0.0270
@<TRIPOS>BOND
     1    26    27    1
     2    27    28    1
     3    27    23    1
     4    23    24    2
     5    23    25    2
     6    23    21    1
     7     1    21    1
     8     1     2    1
     9     2     3    1
    10     3     4    1
    11     3     5    1
    12     5     6    1
    13     6     7    1
    14     7     8   ar
    15     8     9   ar
    16     9    10   ar
    17    10    13    1
    18    13    14   ar
    19    14    15   ar
    20    15    16   ar
    21    16    19    1
    22    19    20    3
    23    16    17   ar
    24    17    18   ar
    25    10    11   ar
    26    11    12   ar
    27     6     1    1
    28    12     7   ar
    29    18    13   ar
    30    21    22    1
@<TRIPOS>MOLECULE
*****
 28 30 0 0 0
SMALL
GASTEIGER

@<TRIPOS>ATOM
      1 C         143.6691  140.6171  159.5159 C.3     1  UNL1        0.0964
      2 C         143.7449  139.9208  158.1894 C.3     1  UNL1        0.0901
      3 N         143.0739  138.5864  158.3273 N.3     1  UNL1       -0.2700
      4 C         142.9203  137.5605  157.2438 C.3     1  UNL1        0.0897
      5 C         142.5833  138.4579  159.7390 C.3     1  UNL1        0.0780
      6 C         142.9512  139.7130  160.4736 C.3     1  UNL1        0.0557
      7 C         142.6534  140.0115  161.9131 C.ar    1  UNL1       -0.0197
      8 C         143.7282  139.8601  162.9484 C.ar    1  UNL1       -0.0042
      9 C         143.4304  140.1586  164.3879 C.ar    1  UNL1       -0.0003
     10 C         142.0577  140.6084  164.7921 C.ar    1  UNL1       -0.0000
     11 C         140.9829  140.7598  163.7569 C.ar    1  UNL1       -0.0003
     12 C         141.2807  140.4614  162.3174 C.ar    1  UNL1       -0.0042
     13 C         141.7599  140.9069  166.2317 C.ar    1  UNL1        0.0000
     14 C         140.5784  140.2697  166.9009 C.ar    1  UNL1        0.0007
     15 C         140.2806  140.5682  168.3405 C.ar    1  UNL1        0.0103
     16 C         141.1644  141.5039  169.1108 C.ar    1  UNL1        0.0684
     17 C         142.3460  142.1412  168.4415 C.ar    1  UNL1        0.0103
     18 C         142.6437  141.8426  167.0020 C.ar    1  UNL1        0.0007
     19 C         140.8666  141.8025  170.5502 C.1     1  UNL1        0.1004
     20 N         140.5689  142.1010  171.9897 N.1     1  UNL1       -0.1908
     21 N         144.2153  141.9784  159.8295 N.3     1  UNL1       -0.1830
     22 H         145.0815  141.8356  160.3489 H       1  UNL1        0.1484
     23 S         143.3927  142.9530  160.6191 S.O2    1  UNL1        0.0390
     24 O         144.4695  143.0173  161.6615 O.2     1  UNL1       -0.1576
     25 O         142.3161  142.8888  159.5768 O.2     1  UNL1       -0.1576
     26 C         142.8557  144.1425  162.8656 C.3     1  UNL1        0.0270
     27 C         142.5702  143.9277  161.4087 C.3     1  UNL1        0.1457
     28 C         141.4623  144.6875  160.7416 C.3     1  UNL1        0.0270
@<TRIPOS>BOND
     1    26    27    1
     2    27    28    1
     3    27    23    1
     4    23    24    2
     5    23    25    2
     6    23    21    1
     7     1    21    1
     8     1     2    1
     9     2     3    1
    10     3     4    1
    11     3     5    1
    12     5     6    1
    13     6     7    1
    14     7     8   ar
    15     8     9   ar
    16     9    10   ar
    17    10    13    1
    18    13    14   ar
    19    14    15   ar
    20    15    16   ar
    21    16    19    1
    22    19    20    3
    23    16    17   ar
    24    17    18   ar
    25    10    11   ar
    26    11    12   ar
    27     6     1    1
    28    12     7   ar
    29    18    13   ar
    30    21    22    1
@<TRIPOS>MOLECULE
*****
 28 30 0 0 0
SMALL
GASTEIGER

@<TRIPOS>ATOM
      1 C         143.2884  141.4157  159.5511 C.3     1  UNL1        0.0964
      2 C         143.4428  140.7661  158.2079 C.3     1  UNL1        0.0901
      3 N         143.0456  139.3257  158.3412 N.3     1  UNL1       -0.2700
      4 C         143.0478  138.3052  157.2419 C.3     1  UNL1        0.0897
      5 C         142.6457  139.0852  159.7667 C.3     1  UNL1        0.0780
      6 C         142.7957  140.3769  160.5145 C.3     1  UNL1        0.0557
      7 C         142.5043  140.5919  161.9702 C.ar    1  UNL1       -0.0197
      8 C         141.0844  140.6627  162.4483 C.ar    1  UNL1       -0.0042
      9 C         140.7930  140.8778  163.9039 C.ar    1  UNL1       -0.0003
     10 C         141.9216  141.0220  164.8814 C.ar    1  UNL1       -0.0000
     11 C         143.3416  140.9512  164.4032 C.ar    1  UNL1       -0.0003
     12 C         143.6329  140.7362  162.9476 C.ar    1  UNL1       -0.0042
     13 C         141.6302  141.2370  166.3370 C.ar    1  UNL1        0.0000
     14 C         140.9741  142.5073  166.7909 C.ar    1  UNL1        0.0007
     15 C         140.6827  142.7223  168.2466 C.ar    1  UNL1        0.0103
     16 C         141.0474  141.6671  169.2483 C.ar    1  UNL1        0.0684
     17 C         141.7035  140.3968  168.7944 C.ar    1  UNL1        0.0103
     18 C         141.9949  140.1818  167.3388 C.ar    1  UNL1        0.0007
     19 C         140.7560  141.8820  170.7039 C.1     1  UNL1        0.1004
     20 N         140.4646  142.0970  172.1595 N.1     1  UNL1       -0.1908
     21 N         143.5761  142.8519  159.8741 N.3     1  UNL1       -0.1830
     22 H         144.4563  142.8672  160.3893 H       1  UNL1        0.1484
     23 S         142.5920  143.6525  160.6744 S.O2    1  UNL1        0.0390
     24 O         143.6680  143.9844  161.6655 O.2     1  UNL1       -0.1576
     25 O         141.5160  143.3206  159.6835 O.2     1  UNL1       -0.1576
     26 C         140.5873  145.3019  160.7765 C.3     1  UNL1        0.0270
     27 C         141.6079  144.4531  161.4748 C.3     1  UNL1        0.1457
     28 C         141.6445  144.4048  162.9736 C.3     1  UNL1        0.0270
@<TRIPOS>BOND
     1    26    27    1
     2    27    28    1
     3    27    23    1
     4    23    24    2
     5    23    25    2
     6    23    21    1
     7     1    21    1
     8     1     2    1
     9     2     3    1
    10     3     4    1
    11     3     5    1
    12     5     6    1
    13     6     7    1
    14     7     8   ar
    15     8     9   ar
    16     9    10   ar
    17    10    13    1
    18    13    14   ar
    19    14    15   ar
    20    15    16   ar
    21    16    19    1
    22    19    20    3
    23    16    17   ar
    24    17    18   ar
    25    10    11   ar
    26    11    12   ar
    27     6     1    1
    28    12     7   ar
    29    18    13   ar
    30    21    22    1
