@<TRIPOS>MOLECULE
*****
 47 51 0 0 0
SMALL
GASTEIGER

@<TRIPOS>ATOM
      1 C         142.1821  139.0052  160.1102 C.ar    1  UNL1        0.1539
      2 N         143.5004  138.7798  159.4310 N.ar    1  UNL1       -0.1328
      3 N         144.1649  139.9030  158.6917 N.ar    1  UNL1       -0.1452
      4 C         143.5112  141.2517  158.6314 C.ar    1  UNL1        0.1223
      5 C         142.1929  141.4771  159.3106 C.ar    1  UNL1        0.0267
      6 C         141.5392  142.8258  159.2503 C.ar    1  UNL1        0.0386
      7 C         140.2209  143.0513  159.9295 C.ar    1  UNL1        0.1386
      8 C         139.5563  141.9280  160.6689 C.ar    1  UNL1        0.0370
      9 C         140.2100  140.5794  160.7291 C.ar    1  UNL1        0.0060
     10 C         141.5284  140.3539  160.0499 C.ar    1  UNL1        0.0352
     11 N         141.5175  137.8820  160.8496 N.pl3   1  UNL1       -0.2941
     12 H         141.0521  137.1719  160.3512 H       1  UNL1        0.1537
     13 N         142.3219  138.0681  164.6422 N.ar    1  UNL1       -0.2387
     14 C         142.7066  138.2872  163.2090 C.ar    1  UNL1        0.1118
     15 C         141.5622  137.8406  162.3484 C.ar    1  UNL1        0.0896
     16 C         140.4702  137.3454  163.2496 C.ar    1  UNL1        0.1363
     17 N         140.9397  137.4860  164.6673 N.ar    1  UNL1       -0.1658
     18 C         143.1705  138.3768  165.8400 C.3     1  UNL1        0.2122
     19 O         143.1815  138.9408  168.3760 O.2     1  UNL1       -0.2726
     20 C         142.5781  139.1013  167.0121 C.2     1  UNL1        0.2510
     21 N         141.3823  139.9863  166.8205 N.am    1  UNL1       -0.2805
     22 H         140.9863  140.0917  165.9254 H       1  UNL1        0.1550
     23 C         140.7899  140.7109  167.9927 C.ar    1  UNL1        0.0804
     24 C         139.7404  140.0459  168.8330 C.ar    1  UNL1        0.0171
     25 C         139.1479  140.7705  170.0053 C.ar    1  UNL1        0.0037
     26 C         139.6051  142.1600  170.3372 C.ar    1  UNL1        0.0321
     27 C         140.6548  142.8250  169.4969 C.ar    1  UNL1        0.1686
     28 F         141.1120  144.2145  169.8287 F       1  UNL1       -0.2018
     29 C         141.2472  142.1005  168.3246 C.ar    1  UNL1        0.1807
     30 F         142.2968  142.7655  167.4843 F       1  UNL1       -0.2005
     31 O         139.5671  144.4000  159.8692 O.3     1  UNL1       -0.4754
     32 C         140.2719  145.6007  160.4274 C.3     1  UNL1        0.2068
     33 C         139.9057  146.1211  161.7858 C.3     1  UNL1        0.0646
     34 C         140.4752  145.4763  163.0145 C.3     1  UNL1        0.0760
     35 N         139.8176  144.2604  163.5968 N.3     1  UNL1       -0.2716
     36 C         138.3600  144.1159  163.9202 C.3     1  UNL1        0.0722
     37 C         138.1436  142.7417  164.4813 C.3     1  UNL1        0.0188
     38 C         139.4676  142.0369  164.5047 C.3     1  UNL1        0.0200
     39 C         140.5022  142.9755  163.9581 C.3     1  UNL1        0.0879
     40 C         141.9644  142.6810  163.8005 C.3     1  UNL1        0.1694
     41 O         142.6506  142.9653  162.4973 O.3     1  UNL1       -0.2720
     42 P         144.1330  142.7730  162.3725 P.3     1  UNL1        0.4731
     43 O         143.9490  141.2879  162.4757 O.2     1  UNL1       -0.2275
     44 O         144.3168  144.2581  162.2692 O.3     1  UNL1       -0.3026
     45 O         145.6153  142.5807  162.2476 O.3     1  UNL1       -0.3026
     46 H         143.4527  144.6954  162.3231 H       1  UNL1        0.2220
     47 H         145.8227  141.6338  162.2837 H       1  UNL1        0.2220
@<TRIPOS>BOND
     1    19    20    2
     2    20    18    1
     3    18    13    1
     4    13    14   ar
     5    14    15   ar
     6    15    11    1
     7    11     1    1
     8     1     2   ar
     9     2     3   ar
    10     3     4   ar
    11     4     5   ar
    12     5     6   ar
    13     6     7   ar
    14     7    31    1
    15    31    32    1
    16    32    33    1
    17    33    34    1
    18    34    35    1
    19    35    36    1
    20    36    37    1
    21    37    38    1
    22    38    39    1
    23    39    40    1
    24    40    41    1
    25    41    42    1
    26    42    43    2
    27    42    44    1
    28    42    45    1
    29     7     8   ar
    30     8     9   ar
    31     9    10   ar
    32    15    16   ar
    33    16    17   ar
    34    20    21   am
    35    21    23    1
    36    23    24   ar
    37    24    25   ar
    38    25    26   ar
    39    26    27   ar
    40    27    28    1
    41    27    29   ar
    42    29    30    1
    43    17    13   ar
    44    29    23   ar
    45    10     1   ar
    46    10     5   ar
    47    39    35    1
    48    11    12    1
    49    44    46    1
    50    45    47    1
    51    21    22    1
@<TRIPOS>MOLECULE
*****
 47 51 0 0 0
SMALL
GASTEIGER

@<TRIPOS>ATOM
      1 C         143.5305  139.5948  162.9556 C.ar    1  UNL1        0.1539
      2 N         144.7410  139.5373  163.8396 N.ar    1  UNL1       -0.1328
      3 N         145.6195  140.7441  163.9876 N.ar    1  UNL1       -0.1452
      4 C         145.2875  142.0083  163.2516 C.ar    1  UNL1        0.1223
      5 C         144.0771  142.0657  162.3677 C.ar    1  UNL1        0.0267
      6 C         143.7451  143.3299  161.6317 C.ar    1  UNL1        0.0386
      7 C         142.5347  143.3873  160.7477 C.ar    1  UNL1        0.1386
      8 C         141.6561  142.1805  160.5997 C.ar    1  UNL1        0.0370
      9 C         141.9880  140.9164  161.3356 C.ar    1  UNL1        0.0060
     10 C         143.1986  140.8590  162.2197 C.ar    1  UNL1        0.0352
     11 N         142.6519  138.3880  162.8076 N.pl3   1  UNL1       -0.2941
     12 H         142.9396  137.6363  162.2406 H       1  UNL1        0.1537
     13 N         139.5400  138.7679  165.0960 N.ar    1  UNL1       -0.2387
     14 C         140.9351  139.1575  164.7064 C.ar    1  UNL1        0.1118
     15 C         141.3352  138.3266  163.5234 C.ar    1  UNL1        0.0896
     16 C         140.1872  137.4235  163.1818 C.ar    1  UNL1        0.1363
     17 N         139.0777  137.6963  164.1537 N.ar    1  UNL1       -0.1658
     18 C         138.7464  139.3482  166.2290 C.3     1  UNL1        0.2122
     19 O         139.3701  139.5323  168.7442 O.2     1  UNL1       -0.2726
     20 C         139.4464  140.0660  167.3445 C.2     1  UNL1        0.2510
     21 N         140.2227  141.3177  167.0604 N.am    1  UNL1       -0.2805
     22 H         140.2727  141.6680  166.1417 H       1  UNL1        0.1550
     23 C         140.9227  142.0356  168.1761 C.ar    1  UNL1        0.0804
     24 C         140.2374  143.1638  168.8885 C.ar    1  UNL1        0.0171
     25 C         140.9374  143.8817  170.0041 C.ar    1  UNL1        0.0037
     26 C         142.3227  143.4714  170.4074 C.ar    1  UNL1        0.0321
     27 C         143.0080  142.3431  169.6950 C.ar    1  UNL1        0.1686
     28 F         144.3933  141.9328  170.0981 F       1  UNL1       -0.2018
     29 C         142.3080  141.6252  168.5793 C.ar    1  UNL1        0.1807
     30 F         142.9933  140.4970  167.8669 F       1  UNL1       -0.2005
     31 O         142.2027  144.6515  160.0118 O.3     1  UNL1       -0.4754
     32 C         140.7700  145.0270  159.7744 C.3     1  UNL1        0.2068
     33 C         140.1541  146.1586  160.5426 C.3     1  UNL1        0.0646
     34 C         139.4503  145.8893  161.8395 C.3     1  UNL1        0.0760
     35 N         140.0180  144.8950  162.8085 N.3     1  UNL1       -0.2716
     36 C         141.2334  145.0934  163.6650 C.3     1  UNL1        0.0722
     37 C         141.4366  143.8487  164.4770 C.3     1  UNL1        0.0188
     38 C         140.3468  142.8809  164.1224 C.3     1  UNL1        0.0200
     39 C         139.4700  143.5275  163.0913 C.3     1  UNL1        0.0879
     40 C         138.2582  142.9144  162.4546 C.3     1  UNL1        0.1694
     41 O         137.9904  141.4468  162.6105 O.3     1  UNL1       -0.2720
     42 P         137.8515  140.5765  161.3967 P.3     1  UNL1        0.4731
     43 O         138.2184  141.7383  160.5217 O.2     1  UNL1       -0.2275
     44 O         137.4845  139.4147  162.2718 O.3     1  UNL1       -0.3026
     45 O         137.7126  139.7062  160.1830 O.3     1  UNL1       -0.3026
     46 H         137.4901  139.6949  163.2004 H       1  UNL1        0.2220
     47 H         137.9063  140.2270  159.3879 H       1  UNL1        0.2220
@<TRIPOS>BOND
     1    19    20    2
     2    20    18    1
     3    18    13    1
     4    13    14   ar
     5    14    15   ar
     6    15    11    1
     7    11     1    1
     8     1     2   ar
     9     2     3   ar
    10     3     4   ar
    11     4     5   ar
    12     5     6   ar
    13     6     7   ar
    14     7    31    1
    15    31    32    1
    16    32    33    1
    17    33    34    1
    18    34    35    1
    19    35    36    1
    20    36    37    1
    21    37    38    1
    22    38    39    1
    23    39    40    1
    24    40    41    1
    25    41    42    1
    26    42    43    2
    27    42    44    1
    28    42    45    1
    29     7     8   ar
    30     8     9   ar
    31     9    10   ar
    32    15    16   ar
    33    16    17   ar
    34    20    21   am
    35    21    23    1
    36    23    24   ar
    37    24    25   ar
    38    25    26   ar
    39    26    27   ar
    40    27    28    1
    41    27    29   ar
    42    29    30    1
    43    17    13   ar
    44    29    23   ar
    45    10     1   ar
    46    10     5   ar
    47    39    35    1
    48    11    12    1
    49    44    46    1
    50    45    47    1
    51    21    22    1
@<TRIPOS>MOLECULE
*****
 47 51 0 0 0
SMALL
GASTEIGER

@<TRIPOS>ATOM
      1 C         139.4593  138.7456  161.3007 C.ar    1  UNL1        0.1539
      2 N         139.3456  138.1944  159.9103 N.ar    1  UNL1       -0.1328
      3 N         138.8762  139.0752  158.7905 N.ar    1  UNL1       -0.1452
      4 C         138.5206  140.5071  159.0611 C.ar    1  UNL1        0.1223
      5 C         138.6344  141.0582  160.4515 C.ar    1  UNL1        0.0267
      6 C         138.2788  142.4901  160.7221 C.ar    1  UNL1        0.0386
      7 C         138.3926  143.0413  162.1125 C.ar    1  UNL1        0.1386
      8 C         138.8619  142.1606  163.2324 C.ar    1  UNL1        0.0370
      9 C         139.2175  140.7287  162.9618 C.ar    1  UNL1        0.0060
     10 C         139.1037  140.1775  161.5713 C.ar    1  UNL1        0.0352
     11 N         139.9287  137.8649  162.4206 N.pl3   1  UNL1       -0.2941
     12 H         139.3642  137.1205  162.7311 H       1  UNL1        0.1537
     13 N         142.9902  138.4293  164.7388 N.ar    1  UNL1       -0.2387
     14 C         141.5317  138.1395  164.5419 C.ar    1  UNL1        0.1118
     15 C         141.2582  138.1183  163.0672 C.ar    1  UNL1        0.0896
     16 C         142.5478  138.3951  162.3527 C.ar    1  UNL1        0.1363
     17 N         143.6182  138.5873  163.3858 N.ar    1  UNL1       -0.1658
     18 C         143.6967  138.5415  166.0573 C.3     1  UNL1        0.2122
     19 O         143.1252  138.6772  168.5880 O.2     1  UNL1       -0.2726
     20 C         143.0370  139.2485  167.2039 C.2     1  UNL1        0.2510
     21 N         142.2889  140.5267  166.9664 N.am    1  UNL1       -0.2805
     22 H         142.2309  140.9017  166.0579 H       1  UNL1        0.1550
     23 C         141.6291  141.2338  168.1131 C.ar    1  UNL1        0.0804
     24 C         142.3006  142.4120  168.7541 C.ar    1  UNL1        0.0171
     25 C         141.6408  143.1190  169.9007 C.ar    1  UNL1        0.0037
     26 C         140.3096  142.6479  170.4064 C.ar    1  UNL1        0.0321
     27 C         139.6380  141.4696  169.7654 C.ar    1  UNL1        0.1686
     28 F         138.3068  140.9984  170.2710 F       1  UNL1       -0.2018
     29 C         140.2978  140.7625  168.6187 C.ar    1  UNL1        0.1807
     30 F         139.6263  139.5843  167.9777 F       1  UNL1       -0.2005
     31 O         138.0370  144.4732  162.3831 O.3     1  UNL1       -0.4754
     32 C         139.1175  145.5092  162.4781 C.3     1  UNL1        0.2068
     33 C         140.1448  145.6233  161.3911 C.3     1  UNL1        0.0646
     34 C         141.4335  144.8627  161.4943 C.3     1  UNL1        0.0760
     35 N         141.6743  143.6721  160.6143 N.3     1  UNL1       -0.2716
     36 C         141.3701  143.5835  159.1481 C.3     1  UNL1        0.0722
     37 C         141.7694  142.2177  158.6736 C.3     1  UNL1        0.0188
     38 C         142.3203  141.4622  159.8465 C.3     1  UNL1        0.0200
     39 C         142.2616  142.3610  161.0459 C.3     1  UNL1        0.0879
     40 C         142.7112  142.0104  162.4333 C.3     1  UNL1        0.1694
     41 O         143.8294  142.7767  163.0755 O.3     1  UNL1       -0.2720
     42 P         145.0467  142.0535  163.5708 P.3     1  UNL1        0.4731
     43 O         144.3802  141.8403  164.8976 O.2     1  UNL1       -0.2275
     44 O         145.7131  142.2668  162.2439 O.3     1  UNL1       -0.3026
     45 O         146.2639  141.3304  164.0660 O.3     1  UNL1       -0.3026
     46 H         145.1145  142.7537  161.6560 H       1  UNL1        0.2220
     47 H         146.1200  141.0446  164.9817 H       1  UNL1        0.2220
@<TRIPOS>BOND
     1    19    20    2
     2    20    18    1
     3    18    13    1
     4    13    14   ar
     5    14    15   ar
     6    15    11    1
     7    11     1    1
     8     1     2   ar
     9     2     3   ar
    10     3     4   ar
    11     4     5   ar
    12     5     6   ar
    13     6     7   ar
    14     7    31    1
    15    31    32    1
    16    32    33    1
    17    33    34    1
    18    34    35    1
    19    35    36    1
    20    36    37    1
    21    37    38    1
    22    38    39    1
    23    39    40    1
    24    40    41    1
    25    41    42    1
    26    42    43    2
    27    42    44    1
    28    42    45    1
    29     7     8   ar
    30     8     9   ar
    31     9    10   ar
    32    15    16   ar
    33    16    17   ar
    34    20    21   am
    35    21    23    1
    36    23    24   ar
    37    24    25   ar
    38    25    26   ar
    39    26    27   ar
    40    27    28    1
    41    27    29   ar
    42    29    30    1
    43    17    13   ar
    44    29    23   ar
    45    10     1   ar
    46    10     5   ar
    47    39    35    1
    48    11    12    1
    49    44    46    1
    50    45    47    1
    51    21    22    1
@<TRIPOS>MOLECULE
*****
 47 51 0 0 0
SMALL
GASTEIGER

@<TRIPOS>ATOM
      1 C         143.1517  138.7084  160.2686 C.ar    1  UNL1        0.1539
      2 N         143.2490  138.3958  158.8048 N.ar    1  UNL1       -0.1328
      3 N         143.6815  139.4581  157.8382 N.ar    1  UNL1       -0.1452
      4 C         144.0167  140.8330  158.3354 C.ar    1  UNL1        0.1223
      5 C         143.9194  141.1456  159.7992 C.ar    1  UNL1        0.0267
      6 C         144.2547  142.5206  160.2964 C.ar    1  UNL1        0.0386
      7 C         144.1574  142.8332  161.7602 C.ar    1  UNL1        0.1386
      8 C         143.7248  141.7709  162.7269 C.ar    1  UNL1        0.0370
      9 C         143.3896  140.3959  162.2297 C.ar    1  UNL1        0.0060
     10 C         143.4869  140.0833  160.7658 C.ar    1  UNL1        0.0352
     11 N         142.7191  137.6461  161.2353 N.pl3   1  UNL1       -0.2941
     12 H         143.3093  136.8805  161.4219 H       1  UNL1        0.1537
     13 N         139.6690  137.7974  163.6310 N.ar    1  UNL1       -0.2387
     14 C         141.1402  137.6284  163.3921 C.ar    1  UNL1        0.1118
     15 C         141.3874  137.7502  161.9176 C.ar    1  UNL1        0.0896
     16 C         140.0689  137.9945  161.2453 C.ar    1  UNL1        0.1363
     17 N         139.0069  138.0236  162.3042 N.ar    1  UNL1       -0.1658
     18 C         138.9807  137.7486  164.9629 C.3     1  UNL1        0.2122
     19 O         138.3790  139.0041  167.1563 O.2     1  UNL1       -0.2726
     20 C         139.3297  138.7491  166.0245 C.2     1  UNL1        0.2510
     21 N         140.6294  139.4947  165.9542 N.am    1  UNL1       -0.2805
     22 H         141.2533  139.3274  165.2113 H       1  UNL1        0.1550
     23 C         140.9784  140.4953  167.0159 C.ar    1  UNL1        0.0804
     24 C         140.2377  141.7974  167.0918 C.ar    1  UNL1        0.0171
     25 C         140.5866  142.7980  168.1534 C.ar    1  UNL1        0.0037
     26 C         141.6763  142.4965  169.1391 C.ar    1  UNL1        0.0321
     27 C         142.4171  141.1943  169.0632 C.ar    1  UNL1        0.1686
     28 F         143.5068  140.8927  170.0489 F       1  UNL1       -0.2018
     29 C         142.0681  140.1937  168.0016 C.ar    1  UNL1        0.1807
     30 F         142.8088  138.8916  167.9257 F       1  UNL1       -0.2005
     31 O         144.4926  144.2081  162.2574 O.3     1  UNL1       -0.4754
     32 C         143.8371  144.7374  163.4983 C.3     1  UNL1        0.2068
     33 C         142.4607  145.3293  163.4254 C.3     1  UNL1        0.0646
     34 C         141.2945  144.4699  163.0364 C.3     1  UNL1        0.0760
     35 N         141.0677  144.1208  161.5953 N.3     1  UNL1       -0.2716
     36 C         141.3393  145.0113  160.4191 C.3     1  UNL1        0.0722
     37 C         140.9690  144.2608  159.1743 C.3     1  UNL1        0.0188
     38 C         140.4686  142.9065  159.5810 C.3     1  UNL1        0.0200
     39 C         140.5296  142.8199  161.0773 C.3     1  UNL1        0.0879
     40 C         140.1238  141.6399  161.9095 C.3     1  UNL1        0.1694
     41 O         139.3751  141.8486  163.1924 O.3     1  UNL1       -0.2720
     42 P         137.8968  141.6002  163.2471 P.3     1  UNL1        0.4731
     43 O         137.7922  142.4884  164.4514 O.2     1  UNL1       -0.2275
     44 O         138.0015  140.7121  162.0428 O.3     1  UNL1       -0.3026
     45 O         136.4186  141.3519  163.3018 O.3     1  UNL1       -0.3026
     46 H         138.9254  140.6721  161.7499 H       1  UNL1        0.2220
     47 H         136.0361  141.8398  164.0478 H       1  UNL1        0.2220
@<TRIPOS>BOND
     1    19    20    2
     2    20    18    1
     3    18    13    1
     4    13    14   ar
     5    14    15   ar
     6    15    11    1
     7    11     1    1
     8     1     2   ar
     9     2     3   ar
    10     3     4   ar
    11     4     5   ar
    12     5     6   ar
    13     6     7   ar
    14     7    31    1
    15    31    32    1
    16    32    33    1
    17    33    34    1
    18    34    35    1
    19    35    36    1
    20    36    37    1
    21    37    38    1
    22    38    39    1
    23    39    40    1
    24    40    41    1
    25    41    42    1
    26    42    43    2
    27    42    44    1
    28    42    45    1
    29     7     8   ar
    30     8     9   ar
    31     9    10   ar
    32    15    16   ar
    33    16    17   ar
    34    20    21   am
    35    21    23    1
    36    23    24   ar
    37    24    25   ar
    38    25    26   ar
    39    26    27   ar
    40    27    28    1
    41    27    29   ar
    42    29    30    1
    43    17    13   ar
    44    29    23   ar
    45    10     1   ar
    46    10     5   ar
    47    39    35    1
    48    11    12    1
    49    44    46    1
    50    45    47    1
    51    21    22    1
@<TRIPOS>MOLECULE
*****
 47 51 0 0 0
SMALL
GASTEIGER

@<TRIPOS>ATOM
      1 C         140.7625  138.7498  160.0699 C.ar    1  UNL1        0.1539
      2 N         142.0048  138.0153  159.6611 N.ar    1  UNL1       -0.1328
      3 N         143.0231  138.6905  158.7909 N.ar    1  UNL1       -0.1452
      4 C         142.7991  140.1001  158.3295 C.ar    1  UNL1        0.1223
      5 C         141.5568  140.8346  158.7384 C.ar    1  UNL1        0.0267
      6 C         141.3328  142.2442  158.2770 C.ar    1  UNL1        0.0386
      7 C         140.0905  142.9786  158.6859 C.ar    1  UNL1        0.1386
      8 C         139.0721  142.3035  159.5561 C.ar    1  UNL1        0.0370
      9 C         139.2961  140.8939  160.0174 C.ar    1  UNL1        0.0060
     10 C         140.5385  140.1594  159.6086 C.ar    1  UNL1        0.0352
     11 N         139.7441  138.0747  160.9401 N.pl3   1  UNL1       -0.2941
     12 H         138.9966  137.5814  160.5312 H       1  UNL1        0.1537
     13 N         139.3212  138.4374  164.7814 N.ar    1  UNL1       -0.2387
     14 C         138.7559  138.4688  163.3923 C.ar    1  UNL1        0.1118
     15 C         139.8647  138.1511  162.4333 C.ar    1  UNL1        0.0896
     16 C         141.1152  137.9233  163.2297 C.ar    1  UNL1        0.1363
     17 N         140.7793  138.1002  164.6809 N.ar    1  UNL1       -0.1658
     18 C         138.5616  138.6974  166.0484 C.3     1  UNL1        0.2122
     19 O         138.6777  139.4454  168.5337 O.2     1  UNL1       -0.2726
     20 C         139.1611  139.5608  167.1184 C.2     1  UNL1        0.2510
     21 N         140.2440  140.5397  166.7733 N.am    1  UNL1       -0.2805
     22 H         140.5613  140.6154  165.8444 H       1  UNL1        0.1550
     23 C         140.8435  141.4031  167.8434 C.ar    1  UNL1        0.0804
     24 C         140.0854  142.5885  168.3629 C.ar    1  UNL1        0.0171
     25 C         140.6849  143.4520  169.4330 C.ar    1  UNL1        0.0037
     26 C         142.0425  143.1300  169.9835 C.ar    1  UNL1        0.0321
     27 C         142.8008  141.9445  169.4640 C.ar    1  UNL1        0.1686
     28 F         144.1584  141.6225  170.0144 F       1  UNL1       -0.2018
     29 C         142.2012  141.0811  168.3939 C.ar    1  UNL1        0.1807
     30 F         142.9594  139.8957  167.8743 F       1  UNL1       -0.2005
     31 O         139.8664  144.3882  158.2246 O.3     1  UNL1       -0.4754
     32 C         140.4443  145.5329  159.0028 C.3     1  UNL1        0.2068
     33 C         140.7272  145.3769  160.4676 C.3     1  UNL1        0.0646
     34 C         139.7595  145.9144  161.4798 C.3     1  UNL1        0.0760
     35 N         139.4600  145.1289  162.7221 N.3     1  UNL1       -0.2716
     36 C         138.1325  144.5367  163.0923 C.3     1  UNL1        0.0722
     37 C         138.2875  143.8394  164.4113 C.3     1  UNL1        0.0188
     38 C         139.7108  144.0007  164.8563 C.3     1  UNL1        0.0200
     39 C         140.4356  144.7976  163.8124 C.3     1  UNL1        0.0879
     40 C         141.8817  145.1937  163.8518 C.3     1  UNL1        0.1694
     41 O         142.9354  144.1602  164.1194 O.3     1  UNL1       -0.2720
     42 P         143.9662  143.8517  163.0743 P.3     1  UNL1        0.4731
     43 O         144.1989  142.5086  163.7002 O.2     1  UNL1       -0.2275
     44 O         143.7335  145.1950  162.4484 O.3     1  UNL1       -0.3026
     45 O         144.9969  143.5433  162.0292 O.3     1  UNL1       -0.3026
     46 H         143.0549  145.6725  162.9508 H       1  UNL1        0.2220
     47 H         145.3610  142.6579  162.1854 H       1  UNL1        0.2220
@<TRIPOS>BOND
     1    19    20    2
     2    20    18    1
     3    18    13    1
     4    13    14   ar
     5    14    15   ar
     6    15    11    1
     7    11     1    1
     8     1     2   ar
     9     2     3   ar
    10     3     4   ar
    11     4     5   ar
    12     5     6   ar
    13     6     7   ar
    14     7    31    1
    15    31    32    1
    16    32    33    1
    17    33    34    1
    18    34    35    1
    19    35    36    1
    20    36    37    1
    21    37    38    1
    22    38    39    1
    23    39    40    1
    24    40    41    1
    25    41    42    1
    26    42    43    2
    27    42    44    1
    28    42    45    1
    29     7     8   ar
    30     8     9   ar
    31     9    10   ar
    32    15    16   ar
    33    16    17   ar
    34    20    21   am
    35    21    23    1
    36    23    24   ar
    37    24    25   ar
    38    25    26   ar
    39    26    27   ar
    40    27    28    1
    41    27    29   ar
    42    29    30    1
    43    17    13   ar
    44    29    23   ar
    45    10     1   ar
    46    10     5   ar
    47    39    35    1
    48    11    12    1
    49    44    46    1
    50    45    47    1
    51    21    22    1
@<TRIPOS>MOLECULE
*****
 47 51 0 0 0
SMALL
GASTEIGER

@<TRIPOS>ATOM
      1 C         142.2950  139.0612  159.8142 C.ar    1  UNL1        0.1539
      2 N         143.5967  138.8585  159.0969 N.ar    1  UNL1       -0.1328
      3 N         144.2115  139.9882  158.3251 N.ar    1  UNL1       -0.1452
      4 C         143.5246  141.3206  158.2706 C.ar    1  UNL1        0.1223
      5 C         142.2230  141.5233  158.9879 C.ar    1  UNL1        0.0267
      6 C         141.5361  142.8557  158.9333 C.ar    1  UNL1        0.0386
      7 C         140.2344  143.0584  159.6506 C.ar    1  UNL1        0.1386
      8 C         139.6195  141.9286  160.4225 C.ar    1  UNL1        0.0370
      9 C         140.3064  140.5962  160.4770 C.ar    1  UNL1        0.0060
     10 C         141.6082  140.3936  159.7597 C.ar    1  UNL1        0.0352
     11 N         141.6802  137.9315  160.5861 N.pl3   1  UNL1       -0.2941
     12 H         141.2681  137.1757  160.1083 H       1  UNL1        0.1537
     13 N         142.4323  138.1990  164.3846 N.ar    1  UNL1       -0.2387
     14 C         142.8646  138.3093  162.9524 C.ar    1  UNL1        0.1118
     15 C         141.6931  137.9533  162.0859 C.ar    1  UNL1        0.0896
     16 C         140.5368  137.6231  162.9825 C.ar    1  UNL1        0.1363
     17 N         140.9936  137.7750  164.4031 N.ar    1  UNL1       -0.1658
     18 C         143.2884  138.4660  165.5870 C.3     1  UNL1        0.2122
     19 O         143.2042  138.7455  168.1685 O.2     1  UNL1       -0.2726
     20 C         142.6916  139.1053  166.8055 C.2     1  UNL1        0.2510
     21 N         141.5822  140.1045  166.6612 N.am    1  UNL1       -0.2805
     22 H         141.2458  140.3407  165.7666 H       1  UNL1        0.1550
     23 C         140.9854  140.7439  167.8798 C.ar    1  UNL1        0.0804
     24 C         139.8390  140.0845  168.5875 C.ar    1  UNL1        0.0171
     25 C         139.2422  140.7238  169.8061 C.ar    1  UNL1        0.0037
     26 C         139.7917  142.0226  170.3170 C.ar    1  UNL1        0.0321
     27 C         140.9382  142.6821  169.6093 C.ar    1  UNL1        0.1686
     28 F         141.4878  143.9809  170.1202 F       1  UNL1       -0.2018
     29 C         141.5351  142.0428  168.3907 C.ar    1  UNL1        0.1807
     30 F         142.6815  142.7022  167.6830 F       1  UNL1       -0.2005
     31 O         139.5476  144.3907  159.5960 O.3     1  UNL1       -0.4754
     32 C         140.2291  145.6089  160.1451 C.3     1  UNL1        0.2068
     33 C         139.7859  146.1900  161.4550 C.3     1  UNL1        0.0646
     34 C         140.4909  145.8069  162.7223 C.3     1  UNL1        0.0760
     35 N         141.2872  144.5372  162.7833 N.3     1  UNL1       -0.2716
     36 C         142.6766  144.3415  162.2529 C.3     1  UNL1        0.0722
     37 C         143.0820  142.9236  162.5271 C.3     1  UNL1        0.0188
     38 C         141.9432  142.2429  163.2269 C.3     1  UNL1        0.0200
     39 C         140.8338  143.2402  163.3853 C.3     1  UNL1        0.0879
     40 C         139.5047  142.9852  164.0319 C.3     1  UNL1        0.1694
     41 O         138.6184  141.8896  163.5182 O.3     1  UNL1       -0.2720
     42 P         138.4156  140.6454  164.3312 P.3     1  UNL1        0.4731
     43 O         137.8949  139.9364  163.1162 O.2     1  UNL1       -0.2275
     44 O         138.9364  141.3546  165.5461 O.3     1  UNL1       -0.3026
     45 O         138.2128  139.4014  165.1441 O.3     1  UNL1       -0.3026
     46 H         139.1722  142.2659  165.3122 H       1  UNL1        0.2220
     47 H         137.8516  138.7009  164.5786 H       1  UNL1        0.2220
@<TRIPOS>BOND
     1    19    20    2
     2    20    18    1
     3    18    13    1
     4    13    14   ar
     5    14    15   ar
     6    15    11    1
     7    11     1    1
     8     1     2   ar
     9     2     3   ar
    10     3     4   ar
    11     4     5   ar
    12     5     6   ar
    13     6     7   ar
    14     7    31    1
    15    31    32    1
    16    32    33    1
    17    33    34    1
    18    34    35    1
    19    35    36    1
    20    36    37    1
    21    37    38    1
    22    38    39    1
    23    39    40    1
    24    40    41    1
    25    41    42    1
    26    42    43    2
    27    42    44    1
    28    42    45    1
    29     7     8   ar
    30     8     9   ar
    31     9    10   ar
    32    15    16   ar
    33    16    17   ar
    34    20    21   am
    35    21    23    1
    36    23    24   ar
    37    24    25   ar
    38    25    26   ar
    39    26    27   ar
    40    27    28    1
    41    27    29   ar
    42    29    30    1
    43    17    13   ar
    44    29    23   ar
    45    10     1   ar
    46    10     5   ar
    47    39    35    1
    48    11    12    1
    49    44    46    1
    50    45    47    1
    51    21    22    1
@<TRIPOS>MOLECULE
*****
 47 51 0 0 0
SMALL
GASTEIGER

@<TRIPOS>ATOM
      1 C         140.8903  139.1794  160.0553 C.ar    1  UNL1        0.1539
      2 N         139.7860  138.4264  159.3748 N.ar    1  UNL1       -0.1328
      3 N         138.6913  139.1731  158.6719 N.ar    1  UNL1       -0.1452
      4 C         138.7010  140.6729  158.6495 C.ar    1  UNL1        0.1223
      5 C         139.8054  141.4260  159.3301 C.ar    1  UNL1        0.0267
      6 C         139.8151  142.9258  159.3077 C.ar    1  UNL1        0.0386
      7 C         140.9195  143.6788  159.9883 C.ar    1  UNL1        0.1386
      8 C         142.0142  142.9321  160.6912 C.ar    1  UNL1        0.0370
      9 C         142.0045  141.4323  160.7136 C.ar    1  UNL1        0.0060
     10 C         140.9000  140.6792  160.0330 C.ar    1  UNL1        0.0352
     11 N         141.9850  138.4327  160.7583 N.pl3   1  UNL1       -0.2941
     12 H         142.7386  138.0637  160.2432 H       1  UNL1        0.1537
     13 N         142.5553  138.2119  164.5912 N.ar    1  UNL1       -0.2387
     14 C         143.0423  138.5401  163.2110 C.ar    1  UNL1        0.1118
     15 C         141.9316  138.2483  162.2459 C.ar    1  UNL1        0.0896
     16 C         140.7582  137.7397  163.0298 C.ar    1  UNL1        0.1363
     17 N         141.1436  137.7172  164.4793 N.ar    1  UNL1       -0.1658
     18 C         143.3419  138.3534  165.8606 C.3     1  UNL1        0.2122
     19 O         143.1672  138.7699  168.4190 O.2     1  UNL1       -0.2726
     20 C         142.7699  139.1204  167.0157 C.2     1  UNL1        0.2510
     21 N         141.8006  140.2380  166.7676 N.am    1  UNL1       -0.2805
     22 H         141.5399  140.4681  165.8466 H       1  UNL1        0.1550
     23 C         141.2286  141.0051  167.9228 C.ar    1  UNL1        0.0804
     24 C         141.9346  142.2248  168.4363 C.ar    1  UNL1        0.0171
     25 C         141.3626  142.9919  169.5915 C.ar    1  UNL1        0.0037
     26 C         140.0846  142.5392  170.2332 C.ar    1  UNL1        0.0321
     27 C         139.3785  141.3193  169.7197 C.ar    1  UNL1        0.1686
     28 F         138.1006  140.8666  170.3613 F       1  UNL1       -0.2018
     29 C         139.9506  140.5523  168.5645 C.ar    1  UNL1        0.1807
     30 F         139.2446  139.3325  168.0510 F       1  UNL1       -0.2005
     31 O         140.9292  145.1786  159.9659 O.3     1  UNL1       -0.4754
     32 C         140.0344  145.9483  160.8916 C.3     1  UNL1        0.2068
     33 C         140.2095  145.8276  162.3765 C.3     1  UNL1        0.0646
     34 C         139.1805  145.1080  163.1970 C.3     1  UNL1        0.0760
     35 N         139.1301  143.6088  163.1899 N.3     1  UNL1       -0.2716
     36 C         138.0924  142.7647  162.5111 C.3     1  UNL1        0.0722
     37 C         138.4294  141.3248  162.7620 C.3     1  UNL1        0.0188
     38 C         139.6754  141.2789  163.5959 C.3     1  UNL1        0.0200
     39 C         140.1085  142.6905  163.8604 C.3     1  UNL1        0.0879
     40 C         141.3091  143.1101  164.6556 C.3     1  UNL1        0.1694
     41 O         142.5036  143.6923  163.9598 O.3     1  UNL1       -0.2720
     42 P         143.8618  143.0923  164.1725 P.3     1  UNL1        0.4731
     43 O         144.4544  144.1010  163.2336 O.2     1  UNL1       -0.2275
     44 O         143.2692  142.0837  165.1114 O.3     1  UNL1       -0.3026
     45 O         145.2200  142.4924  164.3852 O.3     1  UNL1       -0.3026
     46 H         142.3134  142.2321  165.1841 H       1  UNL1        0.2220
     47 H         145.8741  142.9780  163.8586 H       1  UNL1        0.2220
@<TRIPOS>BOND
     1    19    20    2
     2    20    18    1
     3    18    13    1
     4    13    14   ar
     5    14    15   ar
     6    15    11    1
     7    11     1    1
     8     1     2   ar
     9     2     3   ar
    10     3     4   ar
    11     4     5   ar
    12     5     6   ar
    13     6     7   ar
    14     7    31    1
    15    31    32    1
    16    32    33    1
    17    33    34    1
    18    34    35    1
    19    35    36    1
    20    36    37    1
    21    37    38    1
    22    38    39    1
    23    39    40    1
    24    40    41    1
    25    41    42    1
    26    42    43    2
    27    42    44    1
    28    42    45    1
    29     7     8   ar
    30     8     9   ar
    31     9    10   ar
    32    15    16   ar
    33    16    17   ar
    34    20    21   am
    35    21    23    1
    36    23    24   ar
    37    24    25   ar
    38    25    26   ar
    39    26    27   ar
    40    27    28    1
    41    27    29   ar
    42    29    30    1
    43    17    13   ar
    44    29    23   ar
    45    10     1   ar
    46    10     5   ar
    47    39    35    1
    48    11    12    1
    49    44    46    1
    50    45    47    1
    51    21    22    1
@<TRIPOS>MOLECULE
*****
 47 51 0 0 0
SMALL
GASTEIGER

@<TRIPOS>ATOM
      1 C         143.5901  143.4316  162.5929 C.ar    1  UNL1        0.1539
      2 N         144.8815  142.9741  161.9822 N.ar    1  UNL1       -0.1328
      3 N         145.6140  141.8029  162.5667 N.ar    1  UNL1       -0.1452
      4 C         145.0553  141.0893  163.7620 C.ar    1  UNL1        0.1223
      5 C         143.7639  141.5469  164.3727 C.ar    1  UNL1        0.0267
      6 C         143.2051  140.8333  165.5679 C.ar    1  UNL1        0.0386
      7 C         141.9138  141.2909  166.1786 C.ar    1  UNL1        0.1386
      8 C         141.1811  142.4621  165.5940 C.ar    1  UNL1        0.0370
      9 C         141.7399  143.1757  164.3988 C.ar    1  UNL1        0.0060
     10 C         143.0314  142.7181  163.7881 C.ar    1  UNL1        0.0352
     11 N         142.8575  144.6029  162.0084 N.pl3   1  UNL1       -0.2941
     12 H         143.1266  145.5198  162.2452 H       1  UNL1        0.1537
     13 N         140.0309  143.2881  159.6959 N.ar    1  UNL1       -0.2387
     14 C         141.1634  143.0449  160.6490 C.ar    1  UNL1        0.1118
     15 C         141.7150  144.3770  161.0631 C.ar    1  UNL1        0.0896
     16 C         140.9233  145.4434  160.3660 C.ar    1  UNL1        0.1363
     17 N         139.8825  144.7705  159.5210 N.ar    1  UNL1       -0.1658
     18 C         139.1938  142.2340  159.0340 C.3     1  UNL1        0.2122
     19 O         141.1027  141.4608  157.4504 O.2     1  UNL1       -0.2726
     20 C         139.8484  141.1605  158.2162 C.2     1  UNL1        0.2510
     21 N         139.2487  139.7866  158.1643 N.am    1  UNL1       -0.2805
     22 H         138.4255  139.5894  158.6669 H       1  UNL1        0.1550
     23 C         139.9034  138.7129  157.3464 C.ar    1  UNL1        0.0804
     24 C         139.3035  138.2977  156.0358 C.ar    1  UNL1        0.0171
     25 C         139.9581  137.2241  155.2180 C.ar    1  UNL1        0.0037
     26 C         141.2126  136.5657  155.7107 C.ar    1  UNL1        0.0321
     27 C         141.8125  136.9809  157.0214 C.ar    1  UNL1        0.1686
     28 F         143.0669  136.3226  157.5142 F       1  UNL1       -0.2018
     29 C         141.1579  138.0546  157.8392 C.ar    1  UNL1        0.1807
     30 F         141.7578  138.4698  159.1499 F       1  UNL1       -0.2005
     31 O         141.3550  140.5773  167.3738 O.3     1  UNL1       -0.4754
     32 C         139.8778  140.5927  167.6336 C.3     1  UNL1        0.2068
     33 C         139.0185  139.4645  167.1450 C.3     1  UNL1        0.0646
     34 C         138.3150  139.5748  165.8248 C.3     1  UNL1        0.0760
     35 N         139.1087  139.6048  164.5523 N.3     1  UNL1       -0.2716
     36 C         140.3233  138.7779  164.2510 C.3     1  UNL1        0.0722
     37 C         140.7923  139.1291  162.8702 C.3     1  UNL1        0.0188
     38 C         139.8676  140.1731  162.3181 C.3     1  UNL1        0.0200
     39 C         138.8269  140.4671  163.3577 C.3     1  UNL1        0.0879
     40 C         137.7022  141.4507  163.2258 C.3     1  UNL1        0.1694
     41 O         137.7960  142.7911  163.8924 O.3     1  UNL1       -0.2720
     42 P         138.0100  144.0257  163.0678 P.3     1  UNL1        0.4731
     43 O         138.5941  144.7217  164.2613 O.2     1  UNL1       -0.2275
     44 O         137.4258  143.3297  161.8743 O.3     1  UNL1       -0.3026
     45 O         138.2240  145.2602  162.2432 O.3     1  UNL1       -0.3026
     46 H         137.1695  142.4270  162.1199 H       1  UNL1        0.2220
     47 H         138.6262  145.9506  162.7931 H       1  UNL1        0.2220
@<TRIPOS>BOND
     1    19    20    2
     2    20    18    1
     3    18    13    1
     4    13    14   ar
     5    14    15   ar
     6    15    11    1
     7    11     1    1
     8     1     2   ar
     9     2     3   ar
    10     3     4   ar
    11     4     5   ar
    12     5     6   ar
    13     6     7   ar
    14     7    31    1
    15    31    32    1
    16    32    33    1
    17    33    34    1
    18    34    35    1
    19    35    36    1
    20    36    37    1
    21    37    38    1
    22    38    39    1
    23    39    40    1
    24    40    41    1
    25    41    42    1
    26    42    43    2
    27    42    44    1
    28    42    45    1
    29     7     8   ar
    30     8     9   ar
    31     9    10   ar
    32    15    16   ar
    33    16    17   ar
    34    20    21   am
    35    21    23    1
    36    23    24   ar
    37    24    25   ar
    38    25    26   ar
    39    26    27   ar
    40    27    28    1
    41    27    29   ar
    42    29    30    1
    43    17    13   ar
    44    29    23   ar
    45    10     1   ar
    46    10     5   ar
    47    39    35    1
    48    11    12    1
    49    44    46    1
    50    45    47    1
    51    21    22    1
@<TRIPOS>MOLECULE
*****
 47 51 0 0 0
SMALL
GASTEIGER

@<TRIPOS>ATOM
      1 C         143.6048  139.3670  162.8409 C.ar    1  UNL1        0.1539
      2 N         144.6758  139.4714  163.8859 N.ar    1  UNL1       -0.1328
      3 N         145.5823  140.6661  163.9141 N.ar    1  UNL1       -0.1452
      4 C         145.4177  141.7565  162.8973 C.ar    1  UNL1        0.1223
      5 C         144.3467  141.6522  161.8523 C.ar    1  UNL1        0.0267
      6 C         144.1822  142.7426  160.8355 C.ar    1  UNL1        0.0386
      7 C         143.1112  142.6383  159.7905 C.ar    1  UNL1        0.1386
      8 C         142.2047  141.4435  159.7623 C.ar    1  UNL1        0.0370
      9 C         142.3692  140.3530  160.7791 C.ar    1  UNL1        0.0060
     10 C         143.4403  140.4574  161.8241 C.ar    1  UNL1        0.0352
     11 N         142.6983  138.1722  162.8127 N.pl3   1  UNL1       -0.2941
     12 H         143.0081  137.3286  162.4106 H       1  UNL1        0.1537
     13 N         139.4634  138.8259  164.8556 N.ar    1  UNL1       -0.2387
     14 C         140.9381  139.0018  164.6454 C.ar    1  UNL1        0.1118
     15 C         141.3198  138.2627  163.3971 C.ar    1  UNL1        0.0896
     16 C         140.0809  137.6301  162.8359 C.ar    1  UNL1        0.1363
     17 N         138.9336  137.9782  163.7373 N.ar    1  UNL1       -0.1658
     18 C         138.6596  139.3975  165.9858 C.3     1  UNL1        0.2122
     19 O         139.2017  139.5498  168.5220 O.2     1  UNL1       -0.2726
     20 C         139.3514  140.0813  167.1274 C.2     1  UNL1        0.2510
     21 N         140.1932  141.2969  166.8745 N.am    1  UNL1       -0.2805
     22 H         140.2915  141.6458  165.9592 H       1  UNL1        0.1550
     23 C         140.8851  141.9808  168.0162 C.ar    1  UNL1        0.0804
     24 C         140.1870  143.0739  168.7699 C.ar    1  UNL1        0.0171
     25 C         140.8790  143.7578  169.9116 C.ar    1  UNL1        0.0037
     26 C         142.2690  143.3487  170.2996 C.ar    1  UNL1        0.0321
     27 C         142.9671  142.2557  169.5460 C.ar    1  UNL1        0.1686
     28 F         144.3570  141.8466  169.9340 F       1  UNL1       -0.2018
     29 C         142.2751  141.5717  168.4043 C.ar    1  UNL1        0.1807
     30 F         142.9732  140.4787  167.6506 F       1  UNL1       -0.2005
     31 O         142.9467  143.7287  158.7737 O.3     1  UNL1       -0.4754
     32 C         141.8521  144.7421  158.9311 C.3     1  UNL1        0.2068
     33 C         141.3421  145.0889  160.2985 C.3     1  UNL1        0.0646
     34 C         139.9084  144.8268  160.6530 C.3     1  UNL1        0.0760
     35 N         139.4817  143.4558  161.0869 N.3     1  UNL1       -0.2716
     36 C         138.7317  142.4604  160.2522 C.3     1  UNL1        0.0722
     37 C         138.5166  141.2288  161.0811 C.3     1  UNL1        0.0188
     38 C         139.1336  141.4631  162.4281 C.3     1  UNL1        0.0200
     39 C         139.7301  142.8394  162.4318 C.3     1  UNL1        0.0879
     40 C         140.4487  143.4859  163.5787 C.3     1  UNL1        0.1694
     41 O         141.9065  143.8184  163.4588 O.3     1  UNL1       -0.2720
     42 P         142.8576  143.4262  164.5504 P.3     1  UNL1        0.4731
     43 O         143.6244  144.6980  164.3393 O.2     1  UNL1       -0.2275
     44 O         142.0907  142.1544  164.7614 O.3     1  UNL1       -0.3026
     45 O         143.8086  143.0339  165.6419 O.3     1  UNL1       -0.3026
     46 H         141.3456  142.1194  164.1414 H       1  UNL1        0.2220
     47 H         144.4812  143.7248  165.7485 H       1  UNL1        0.2220
@<TRIPOS>BOND
     1    19    20    2
     2    20    18    1
     3    18    13    1
     4    13    14   ar
     5    14    15   ar
     6    15    11    1
     7    11     1    1
     8     1     2   ar
     9     2     3   ar
    10     3     4   ar
    11     4     5   ar
    12     5     6   ar
    13     6     7   ar
    14     7    31    1
    15    31    32    1
    16    32    33    1
    17    33    34    1
    18    34    35    1
    19    35    36    1
    20    36    37    1
    21    37    38    1
    22    38    39    1
    23    39    40    1
    24    40    41    1
    25    41    42    1
    26    42    43    2
    27    42    44    1
    28    42    45    1
    29     7     8   ar
    30     8     9   ar
    31     9    10   ar
    32    15    16   ar
    33    16    17   ar
    34    20    21   am
    35    21    23    1
    36    23    24   ar
    37    24    25   ar
    38    25    26   ar
    39    26    27   ar
    40    27    28    1
    41    27    29   ar
    42    29    30    1
    43    17    13   ar
    44    29    23   ar
    45    10     1   ar
    46    10     5   ar
    47    39    35    1
    48    11    12    1
    49    44    46    1
    50    45    47    1
    51    21    22    1
