@<TRIPOS>MOLECULE
*****
 40 46 0 0 0
SMALL
GASTEIGER

@<TRIPOS>ATOM
      1 C         137.7207  139.5748  161.9898 C.3     1  UNL1        0.0701
      2 C         137.6568  140.7278  162.9471 C.3     1  UNL1        0.0193
      3 C         138.2485  140.5972  164.3192 C.3     1  UNL1        0.0287
      4 C         138.9041  139.3134  164.7342 C.3     1  UNL1        0.0955
      5 C         138.9681  138.1603  163.7769 C.3     1  UNL1        0.0287
      6 C         138.3763  138.2910  162.4047 C.3     1  UNL1        0.0193
      7 O         138.5939  139.3377  163.9718 O.3     1  UNL1       -0.3571
      8 C         138.0589  139.4558  162.7312 C.3     1  UNL1        0.1562
      9 N         137.1290  139.7054  160.6177 N.3     1  UNL1       -0.2912
     10 H         136.8752  138.7648  160.3156 H       1  UNL1        0.1236
     11 C         137.9348  140.3137  159.5083 C.3     1  UNL1        0.1353
     12 O         141.6907  135.1021  155.0944 O.2     1  UNL1       -0.2707
     13 C         141.7179  136.1914  156.1254 C.2     1  UNL1        0.2718
     14 C         143.0242  136.6326  156.7159 C.3     1  UNL1        0.2899
     15 O         143.0514  137.7218  157.7469 O.3     1  UNL1       -0.4612
     16 C         141.7722  138.3698  158.1873 C.ar    1  UNL1        0.1898
     17 C         141.7994  139.4590  159.2182 C.ar    1  UNL1        0.1400
     18 N         140.5202  140.1070  159.6585 N.ar    1  UNL1       -0.2245
     19 C         139.2139  139.6657  159.0679 C.ar    1  UNL1        0.1567
     20 N         139.1868  138.5765  158.0370 N.ar    1  UNL1       -0.2113
     21 C         140.4659  137.9285  157.5967 C.ar    1  UNL1        0.1715
     22 N         140.4387  136.8393  156.5658 N.am    1  UNL1       -0.2638
     23 H         139.5813  136.5497  156.1781 H       1  UNL1        0.1565
     24 C         139.4958  139.1827  166.1063 C.3     1  UNL1        0.0604
     25 C         140.6328  140.0692  166.5203 C.3     1  UNL1        0.1335
     26 O         141.1386  139.8028  165.1335 O.3     1  UNL1       -0.3806
     27 C         141.8756  140.9000  166.6444 C.3     1  UNL1        0.1402
     28 N         141.9002  141.4945  168.0214 N.ar    1  UNL1       -0.2915
     29 C         142.8817  142.3979  168.7072 C.ar    1  UNL1        0.2611
     30 O         144.1093  142.8613  167.9803 O.2     1  UNL1       -0.2670
     31 C         142.6357  142.8379  170.1199 C.ar    1  UNL1        0.0623
     32 C         141.4082  142.3746  170.8468 C.ar    1  UNL1        0.0254
     33 C         140.4266  141.4712  170.1610 C.ar    1  UNL1        0.0972
     34 N         139.1334  140.8606  170.6355 N.ar    1  UNL1       -0.2400
     35 C         138.2462  139.9635  169.8243 C.ar    1  UNL1        0.1282
     36 C         138.6241  139.6084  168.4169 C.ar    1  UNL1        0.1588
     37 F         137.7369  138.7113  167.6057 F       1  UNL1       -0.2027
     38 C         139.8894  140.1503  167.8206 C.ar    1  UNL1        0.0500
     39 C         140.6726  141.0312  168.7483 C.ar    1  UNL1        0.0806
     40 H         141.9771  140.2718  164.9995 H       1  UNL1        0.2108
@<TRIPOS>BOND
     1    12    13    2
     2    13    14    1
     3    14    15    1
     4    15    16    1
     5    16    17   ar
     6    17    18   ar
     7    18    19   ar
     8    19    11    1
     9    11     9    1
    10     9     1    1
    11     1     2    1
    12     2     3    1
    13     3     4    1
    14     4    24    1
    15    24    25    1
    16    25    26    1
    17    25    27    1
    18    27    28    1
    19    28    29   ar
    20    29    30    2
    21    29    31   ar
    22    31    32   ar
    23    32    33   ar
    24    33    34   ar
    25    34    35   ar
    26    35    36   ar
    27    36    37    1
    28    36    38   ar
    29    38    39   ar
    30     4     5    1
    31     5     6    1
    32     4     7    1
    33     7     8    1
    34    19    20   ar
    35    20    21   ar
    36    21    22    1
    37    22    13   am
    38    21    16   ar
    39     6     1    1
    40     8     1    1
    41    38    25    1
    42    39    28   ar
    43    39    33   ar
    44     9    10    1
    45    26    40    1
    46    22    23    1
@<TRIPOS>MOLECULE
*****
 40 46 0 0 0
SMALL
GASTEIGER

@<TRIPOS>ATOM
      1 C         137.7489  139.6851  162.0902 C.3     1  UNL1        0.0701
      2 C         138.4817  138.4184  162.4195 C.3     1  UNL1        0.0193
      3 C         139.1004  138.2404  163.7743 C.3     1  UNL1        0.0287
      4 C         138.9864  139.3292  164.7999 C.3     1  UNL1        0.0955
      5 C         138.2536  140.5959  164.4706 C.3     1  UNL1        0.0287
      6 C         137.6348  140.7738  163.1157 C.3     1  UNL1        0.0193
      7 O         138.6309  139.4724  164.0711 O.3     1  UNL1       -0.3571
      8 C         138.0715  139.6333  162.8461 C.3     1  UNL1        0.1562
      9 N         137.1301  139.8631  160.7354 N.3     1  UNL1       -0.2912
     10 H         136.8800  138.9323  160.4014 H       1  UNL1        0.1236
     11 C         137.9087  140.5229  159.6362 C.3     1  UNL1        0.1353
     12 O         145.2748  141.5253  161.9786 O.2     1  UNL1       -0.2707
     13 C         143.9640  142.1015  161.5315 C.2     1  UNL1        0.2718
     14 C         143.7978  143.5878  161.4181 C.3     1  UNL1        0.2899
     15 O         142.4870  144.1641  160.9710 O.3     1  UNL1       -0.4612
     16 C         141.3425  143.2538  160.6373 C.ar    1  UNL1        0.1898
     17 C         140.0317  143.8299  160.1902 C.ar    1  UNL1        0.1400
     18 N         138.8871  142.9196  159.8565 N.ar    1  UNL1       -0.2245
     19 C         139.0534  141.4331  159.9699 C.ar    1  UNL1        0.1567
     20 N         140.3642  140.8570  160.4170 N.ar    1  UNL1       -0.2113
     21 C         141.5087  141.7673  160.7507 C.ar    1  UNL1        0.1715
     22 N         142.8194  141.1911  161.1978 N.am    1  UNL1       -0.2638
     23 H         142.9285  140.2155  161.2722 H       1  UNL1        0.1565
     24 C         139.6052  139.1512  166.1546 C.3     1  UNL1        0.0604
     25 C         140.7300  140.0436  166.5886 C.3     1  UNL1        0.1335
     26 O         141.2774  139.7545  165.2223 O.3     1  UNL1       -0.3806
     27 C         141.9692  140.8756  166.7369 C.3     1  UNL1        0.1402
     28 N         141.9526  141.4925  168.1041 N.ar    1  UNL1       -0.2915
     29 C         142.9137  142.4064  168.8047 C.ar    1  UNL1        0.2611
     30 O         144.1633  142.8572  168.1080 O.2     1  UNL1       -0.2670
     31 C         142.6254  142.8695  170.2019 C.ar    1  UNL1        0.0623
     32 C         141.3758  142.4187  170.8986 C.ar    1  UNL1        0.0254
     33 C         140.4146  141.5048  170.1980 C.ar    1  UNL1        0.0972
     34 N         139.1069  140.9027  170.6428 N.ar    1  UNL1       -0.2400
     35 C         138.2438  139.9930  169.8197 C.ar    1  UNL1        0.1282
     36 C         138.6641  139.6148  168.4304 C.ar    1  UNL1        0.1588
     37 F         137.8009  138.7052  167.6073 F       1  UNL1       -0.2027
     38 C         139.9474  140.1463  167.8641 C.ar    1  UNL1        0.0500
     39 C         140.7030  141.0417  168.8008 C.ar    1  UNL1        0.0806
     40 H         142.1201  140.2207  165.1063 H       1  UNL1        0.2108
@<TRIPOS>BOND
     1    12    13    2
     2    13    14    1
     3    14    15    1
     4    15    16    1
     5    16    17   ar
     6    17    18   ar
     7    18    19   ar
     8    19    11    1
     9    11     9    1
    10     9     1    1
    11     1     2    1
    12     2     3    1
    13     3     4    1
    14     4    24    1
    15    24    25    1
    16    25    26    1
    17    25    27    1
    18    27    28    1
    19    28    29   ar
    20    29    30    2
    21    29    31   ar
    22    31    32   ar
    23    32    33   ar
    24    33    34   ar
    25    34    35   ar
    26    35    36   ar
    27    36    37    1
    28    36    38   ar
    29    38    39   ar
    30     4     5    1
    31     5     6    1
    32     4     7    1
    33     7     8    1
    34    19    20   ar
    35    20    21   ar
    36    21    22    1
    37    22    13   am
    38    21    16   ar
    39     6     1    1
    40     8     1    1
    41    38    25    1
    42    39    28   ar
    43    39    33   ar
    44     9    10    1
    45    26    40    1
    46    22    23    1
@<TRIPOS>MOLECULE
*****
 40 46 0 0 0
SMALL
GASTEIGER

@<TRIPOS>ATOM
      1 C         137.9745  139.6493  161.2622 C.3     1  UNL1        0.0701
      2 C         138.3097  140.8022  162.1614 C.3     1  UNL1        0.0193
      3 C         139.0892  140.5686  163.4215 C.3     1  UNL1        0.0287
      4 C         139.5335  139.1821  163.7825 C.3     1  UNL1        0.0955
      5 C         139.1983  138.0292  162.8833 C.3     1  UNL1        0.0287
      6 C         138.4188  138.2628  161.6232 C.3     1  UNL1        0.0193
      7 O         139.1085  139.2608  163.0816 O.3     1  UNL1       -0.3571
      8 C         138.4037  139.4719  161.9422 C.3     1  UNL1        0.1562
      9 N         137.1950  139.8828  160.0021 N.3     1  UNL1       -0.2912
     10 H         136.7031  139.0136  159.7948 H       1  UNL1        0.1236
     11 C         137.9057  140.2886  158.7451 C.3     1  UNL1        0.1353
     12 O         141.8841  134.6162  155.1747 O.2     1  UNL1       -0.2707
     13 C         141.8653  135.8671  156.0024 C.2     1  UNL1        0.2718
     14 C         143.1538  136.4780  156.4676 C.3     1  UNL1        0.2899
     15 O         143.1351  137.7289  157.2953 O.3     1  UNL1       -0.4612
     16 C         141.8277  138.3688  157.6577 C.ar    1  UNL1        0.1898
     17 C         141.8089  139.6196  158.4854 C.ar    1  UNL1        0.1400
     18 N         140.5015  140.2595  158.8478 N.ar    1  UNL1       -0.2245
     19 C         139.2130  139.6486  158.3826 C.ar    1  UNL1        0.1567
     20 N         139.2318  138.3978  157.5549 N.ar    1  UNL1       -0.2113
     21 C         140.5392  137.7579  157.1925 C.ar    1  UNL1        0.1715
     22 N         140.5579  136.5070  156.3649 N.am    1  UNL1       -0.2638
     23 H         139.7122  136.1061  156.0595 H       1  UNL1        0.1565
     24 C         140.3130  138.9486  165.0426 C.3     1  UNL1        0.0604
     25 C         139.7245  139.3268  166.3695 C.3     1  UNL1        0.1335
     26 O         138.6285  138.3814  165.9757 O.3     1  UNL1       -0.3806
     27 C         138.9070  139.5074  167.6140 C.3     1  UNL1        0.1402
     28 N         139.6207  140.4853  168.4997 N.ar    1  UNL1       -0.2915
     29 C         139.2871  141.0447  169.8509 C.ar    1  UNL1        0.2611
     30 O         138.0284  140.6209  170.5481 O.2     1  UNL1       -0.2670
     31 C         140.2122  142.0278  170.5048 C.ar    1  UNL1        0.0623
     32 C         141.4709  142.4516  169.8076 C.ar    1  UNL1        0.0254
     33 C         141.8045  141.8922  168.4564 C.ar    1  UNL1        0.0972
     34 N         142.9758  142.1322  167.5394 N.ar    1  UNL1       -0.2400
     35 C         143.1757  141.4910  166.1982 C.ar    1  UNL1        0.1282
     36 C         142.1596  140.5215  165.6714 C.ar    1  UNL1        0.1588
     37 F         142.3596  139.8803  164.3302 F       1  UNL1       -0.2027
     38 C         140.9435  140.1931  166.4859 C.ar    1  UNL1        0.0500
     39 C         140.8794  140.9091  167.8024 C.ar    1  UNL1        0.0806
     40 H         137.9613  138.3490  166.6790 H       1  UNL1        0.2108
@<TRIPOS>BOND
     1    12    13    2
     2    13    14    1
     3    14    15    1
     4    15    16    1
     5    16    17   ar
     6    17    18   ar
     7    18    19   ar
     8    19    11    1
     9    11     9    1
    10     9     1    1
    11     1     2    1
    12     2     3    1
    13     3     4    1
    14     4    24    1
    15    24    25    1
    16    25    26    1
    17    25    27    1
    18    27    28    1
    19    28    29   ar
    20    29    30    2
    21    29    31   ar
    22    31    32   ar
    23    32    33   ar
    24    33    34   ar
    25    34    35   ar
    26    35    36   ar
    27    36    37    1
    28    36    38   ar
    29    38    39   ar
    30     4     5    1
    31     5     6    1
    32     4     7    1
    33     7     8    1
    34    19    20   ar
    35    20    21   ar
    36    21    22    1
    37    22    13   am
    38    21    16   ar
    39     6     1    1
    40     8     1    1
    41    38    25    1
    42    39    28   ar
    43    39    33   ar
    44     9    10    1
    45    26    40    1
    46    22    23    1
@<TRIPOS>MOLECULE
*****
 40 46 0 0 0
SMALL
GASTEIGER

@<TRIPOS>ATOM
      1 C         144.4401  140.4096  157.5674 C.3     1  UNL1        0.0701
      2 C         143.6735  139.9481  158.7713 C.3     1  UNL1        0.0193
      3 C         143.4508  140.8835  159.9226 C.3     1  UNL1        0.0287
      4 C         143.9947  142.2806  159.8700 C.3     1  UNL1        0.0955
      5 C         144.7612  142.7421  158.6660 C.3     1  UNL1        0.0287
      6 C         144.9839  141.8066  157.5148 C.3     1  UNL1        0.0193
      7 O         144.1421  141.8041  159.2148 O.3     1  UNL1       -0.3571
      8 C         144.3435  140.9583  158.1739 C.3     1  UNL1        0.1562
      9 N         144.6628  139.4742  156.4162 N.3     1  UNL1       -0.2912
     10 H         145.3289  139.9290  155.7918 H       1  UNL1        0.1236
     11 C         143.5041  139.0379  155.5694 C.3     1  UNL1        0.1353
     12 O         144.9682  131.4624  156.6736 O.2     1  UNL1       -0.2707
     13 C         144.0020  132.5671  156.3631 C.2     1  UNL1        0.2718
     14 C         142.5577  132.2510  156.1104 C.3     1  UNL1        0.2899
     15 O         141.5914  133.3556  155.7999 O.3     1  UNL1       -0.4612
     16 C         142.0696  134.7761  155.7423 C.ar    1  UNL1        0.1898
     17 C         141.1034  135.8807  155.4319 C.ar    1  UNL1        0.1400
     18 N         141.5816  137.3013  155.3743 N.ar    1  UNL1       -0.2245
     19 C         143.0259  137.6173  155.6271 C.ar    1  UNL1        0.1567
     20 N         143.9921  136.5127  155.9375 N.ar    1  UNL1       -0.2113
     21 C         143.5139  135.0921  155.9951 C.ar    1  UNL1        0.1715
     22 N         144.4802  133.9876  156.3055 N.am    1  UNL1       -0.2638
     23 H         145.4282  134.1951  156.4715 H       1  UNL1        0.1565
     24 C         143.7720  143.2160  161.0212 C.3     1  UNL1        0.0604
     25 C         142.3944  143.7338  161.3112 C.3     1  UNL1        0.1335
     26 O         142.4063  144.1226  159.8625 O.3     1  UNL1       -0.3806
     27 C         141.0193  144.3330  161.2983 C.3     1  UNL1        0.1402
     28 N         140.4455  144.2062  162.6784 N.ar    1  UNL1       -0.2915
     29 C         139.1256  144.6202  163.2585 C.ar    1  UNL1        0.2611
     30 O         138.1052  145.2976  162.3926 O.2     1  UNL1       -0.2670
     31 C         138.8262  144.3566  164.7045 C.ar    1  UNL1        0.0623
     32 C         139.8466  143.6791  165.5703 C.ar    1  UNL1        0.0254
     33 C         141.1665  143.2652  164.9902 C.ar    1  UNL1        0.0972
     34 N         142.3573  142.5808  165.6098 N.ar    1  UNL1       -0.2400
     35 C         143.6265  142.2259  164.8934 C.ar    1  UNL1        0.1282
     36 C         143.7830  142.5539  163.4381 C.ar    1  UNL1        0.1588
     37 F         145.0521  142.1990  162.7216 F       1  UNL1       -0.2027
     38 C         142.6704  143.2368  162.6992 C.ar    1  UNL1        0.0500
     39 C         141.4659  143.5287  163.5442 C.ar    1  UNL1        0.0806
     40 H         141.5652  144.5488  159.6351 H       1  UNL1        0.2108
@<TRIPOS>BOND
     1    12    13    2
     2    13    14    1
     3    14    15    1
     4    15    16    1
     5    16    17   ar
     6    17    18   ar
     7    18    19   ar
     8    19    11    1
     9    11     9    1
    10     9     1    1
    11     1     2    1
    12     2     3    1
    13     3     4    1
    14     4    24    1
    15    24    25    1
    16    25    26    1
    17    25    27    1
    18    27    28    1
    19    28    29   ar
    20    29    30    2
    21    29    31   ar
    22    31    32   ar
    23    32    33   ar
    24    33    34   ar
    25    34    35   ar
    26    35    36   ar
    27    36    37    1
    28    36    38   ar
    29    38    39   ar
    30     4     5    1
    31     5     6    1
    32     4     7    1
    33     7     8    1
    34    19    20   ar
    35    20    21   ar
    36    21    22    1
    37    22    13   am
    38    21    16   ar
    39     6     1    1
    40     8     1    1
    41    38    25    1
    42    39    28   ar
    43    39    33   ar
    44     9    10    1
    45    26    40    1
    46    22    23    1
@<TRIPOS>MOLECULE
*****
 40 46 0 0 0
SMALL
GASTEIGER

@<TRIPOS>ATOM
      1 C         142.8546  139.0707  159.6455 C.3     1  UNL1        0.0701
      2 C         143.3439  137.8519  160.3701 C.3     1  UNL1        0.0193
      3 C         142.9320  137.6087  161.7918 C.3     1  UNL1        0.0287
      4 C         142.0308  138.5845  162.4889 C.3     1  UNL1        0.0955
      5 C         141.5416  139.8033  161.7644 C.3     1  UNL1        0.0287
      6 C         141.9535  140.0464  160.3426 C.3     1  UNL1        0.0193
      7 O         142.2295  138.7603  161.7095 O.3     1  UNL1       -0.3571
      8 C         142.6019  138.9801  160.4240 C.3     1  UNL1        0.1562
      9 N         143.2665  139.3139  158.2238 N.3     1  UNL1       -0.2912
     10 H         143.4978  140.3045  158.1495 H       1  UNL1        0.1236
     11 C         142.3164  139.0059  157.1047 C.3     1  UNL1        0.1353
     12 O         145.2923  131.8537  156.2440 O.2     1  UNL1       -0.2707
     13 C         144.1823  132.8355  156.0117 C.2     1  UNL1        0.2718
     14 C         142.9542  132.4149  155.2601 C.3     1  UNL1        0.2899
     15 O         141.8441  133.3967  155.0277 O.3     1  UNL1       -0.4612
     16 C         141.9622  134.7990  155.5470 C.ar    1  UNL1        0.1898
     17 C         140.8522  135.7807  155.3146 C.ar    1  UNL1        0.1400
     18 N         140.9703  137.1830  155.8339 N.ar    1  UNL1       -0.2245
     19 C         142.1984  137.6036  156.5855 C.ar    1  UNL1        0.1567
     20 N         143.3084  136.6218  156.8178 N.ar    1  UNL1       -0.2113
     21 C         143.1903  135.2195  156.2985 C.ar    1  UNL1        0.1715
     22 N         144.3004  134.2378  156.5309 N.am    1  UNL1       -0.2638
     23 H         145.1064  134.5139  157.0242 H       1  UNL1        0.1565
     24 C         141.6190  138.3413  163.9107 C.3     1  UNL1        0.0604
     25 C         142.0605  139.2835  164.9910 C.3     1  UNL1        0.1335
     26 O         143.3250  139.3622  164.1880 O.3     1  UNL1       -0.3806
     27 C         142.7664  140.2422  165.9036 C.3     1  UNL1        0.1402
     28 N         141.8459  140.5591  167.0447 N.ar    1  UNL1       -0.2915
     29 C         142.0039  141.4437  168.2458 C.ar    1  UNL1        0.2611
     30 O         143.2787  142.2065  168.4530 O.2     1  UNL1       -0.2670
     31 C         140.8870  141.5654  169.2395 C.ar    1  UNL1        0.0623
     32 C         139.6121  140.8026  169.0323 C.ar    1  UNL1        0.0254
     33 C         139.4542  139.9181  167.8313 C.ar    1  UNL1        0.0972
     34 N         138.3092  139.0513  167.3750 N.ar    1  UNL1       -0.2400
     35 C         138.2965  138.2103  166.1330 C.ar    1  UNL1        0.1282
     36 C         139.4938  138.1886  165.2297 C.ar    1  UNL1        0.1588
     37 F         139.4811  137.3475  163.9877 F       1  UNL1       -0.2027
     38 C         140.7038  139.0080  165.5682 C.ar    1  UNL1        0.0500
     39 C         140.5711  139.7963  166.8375 C.ar    1  UNL1        0.0806
     40 H         143.9493  139.9618  164.6258 H       1  UNL1        0.2108
@<TRIPOS>BOND
     1    12    13    2
     2    13    14    1
     3    14    15    1
     4    15    16    1
     5    16    17   ar
     6    17    18   ar
     7    18    19   ar
     8    19    11    1
     9    11     9    1
    10     9     1    1
    11     1     2    1
    12     2     3    1
    13     3     4    1
    14     4    24    1
    15    24    25    1
    16    25    26    1
    17    25    27    1
    18    27    28    1
    19    28    29   ar
    20    29    30    2
    21    29    31   ar
    22    31    32   ar
    23    32    33   ar
    24    33    34   ar
    25    34    35   ar
    26    35    36   ar
    27    36    37    1
    28    36    38   ar
    29    38    39   ar
    30     4     5    1
    31     5     6    1
    32     4     7    1
    33     7     8    1
    34    19    20   ar
    35    20    21   ar
    36    21    22    1
    37    22    13   am
    38    21    16   ar
    39     6     1    1
    40     8     1    1
    41    38    25    1
    42    39    28   ar
    43    39    33   ar
    44     9    10    1
    45    26    40    1
    46    22    23    1
@<TRIPOS>MOLECULE
*****
 40 46 0 0 0
SMALL
GASTEIGER

@<TRIPOS>ATOM
      1 C         141.9966  144.2665  161.8207 C.3     1  UNL1        0.0701
      2 C         143.2612  143.4673  161.9303 C.3     1  UNL1        0.0193
      3 C         143.4360  142.4907  163.0553 C.3     1  UNL1        0.0287
      4 C         142.3462  142.3133  164.0708 C.3     1  UNL1        0.0955
      5 C         141.0816  143.1125  163.9611 C.3     1  UNL1        0.0287
      6 C         140.9068  144.0891  162.8361 C.3     1  UNL1        0.0193
      7 O         142.2047  142.8604  163.4720 O.3     1  UNL1       -0.3571
      8 C         142.0466  143.7434  162.4547 C.3     1  UNL1        0.1562
      9 N         141.8217  145.2431  160.6957 N.3     1  UNL1       -0.2912
     10 H         141.2157  145.9866  161.0427 H       1  UNL1        0.1236
     11 C         141.2425  144.7865  159.3895 C.3     1  UNL1        0.1353
     12 O         147.7140  141.9282  156.1184 O.2     1  UNL1       -0.2707
     13 C         146.2479  141.8128  156.4143 C.2     1  UNL1        0.2718
     14 C         145.4732  140.6291  155.9158 C.3     1  UNL1        0.2899
     15 O         144.0072  140.5136  156.2116 O.3     1  UNL1       -0.4612
     16 C         143.3160  141.5819  157.0061 C.ar    1  UNL1        0.1898
     17 C         141.8501  141.4664  157.3020 C.ar    1  UNL1        0.1400
     18 N         141.1589  142.5347  158.0965 N.ar    1  UNL1       -0.2245
     19 C         141.9337  143.7183  158.5950 C.ar    1  UNL1        0.1567
     20 N         143.3997  143.8338  158.2991 N.ar    1  UNL1       -0.2113
     21 C         144.0908  142.7655  157.5047 C.ar    1  UNL1        0.1715
     22 N         145.5568  142.8810  157.2088 N.am    1  UNL1       -0.2638
     23 H         146.0653  143.6579  157.5360 H       1  UNL1        0.1565
     24 C         142.5211  141.3366  165.1958 C.3     1  UNL1        0.0604
     25 C         142.6337  141.8311  166.6075 C.3     1  UNL1        0.1335
     26 O         143.8213  142.5824  166.0831 O.3     1  UNL1       -0.3806
     27 C         142.9945  142.4825  167.9095 C.3     1  UNL1        0.1402
     28 N         142.0064  142.0304  168.9436 N.ar    1  UNL1       -0.2915
     29 C         141.8658  142.3462  170.4032 C.ar    1  UNL1        0.2611
     30 O         142.8373  143.2771  171.0662 O.2     1  UNL1       -0.2670
     31 C         140.7536  141.7310  171.1998 C.ar    1  UNL1        0.0623
     32 C         139.7821  140.8001  170.5368 C.ar    1  UNL1        0.0254
     33 C         139.9227  140.4844  169.0772 C.ar    1  UNL1        0.0972
     34 N         139.1101  139.6023  168.1651 N.ar    1  UNL1       -0.2400
     35 C         139.3757  139.3816  166.7054 C.ar    1  UNL1        0.1282
     36 C         140.5320  140.0686  166.0413 C.ar    1  UNL1        0.1588
     37 F         140.7976  139.8479  164.5816 F       1  UNL1       -0.2027
     38 C         141.4226  140.9763  166.8368 C.ar    1  UNL1        0.0500
     39 C         141.0349  141.0996  168.2806 C.ar    1  UNL1        0.0806
     40 H         144.2224  143.0956  166.8018 H       1  UNL1        0.2108
@<TRIPOS>BOND
     1    12    13    2
     2    13    14    1
     3    14    15    1
     4    15    16    1
     5    16    17   ar
     6    17    18   ar
     7    18    19   ar
     8    19    11    1
     9    11     9    1
    10     9     1    1
    11     1     2    1
    12     2     3    1
    13     3     4    1
    14     4    24    1
    15    24    25    1
    16    25    26    1
    17    25    27    1
    18    27    28    1
    19    28    29   ar
    20    29    30    2
    21    29    31   ar
    22    31    32   ar
    23    32    33   ar
    24    33    34   ar
    25    34    35   ar
    26    35    36   ar
    27    36    37    1
    28    36    38   ar
    29    38    39   ar
    30     4     5    1
    31     5     6    1
    32     4     7    1
    33     7     8    1
    34    19    20   ar
    35    20    21   ar
    36    21    22    1
    37    22    13   am
    38    21    16   ar
    39     6     1    1
    40     8     1    1
    41    38    25    1
    42    39    28   ar
    43    39    33   ar
    44     9    10    1
    45    26    40    1
    46    22    23    1
@<TRIPOS>MOLECULE
*****
 40 46 0 0 0
SMALL
GASTEIGER

@<TRIPOS>ATOM
      1 C         141.9652  144.3083  161.7285 C.3     1  UNL1        0.0701
      2 C         143.1184  143.3492  161.7146 C.3     1  UNL1        0.0193
      3 C         143.2897  142.3659  162.8344 C.3     1  UNL1        0.0287
      4 C         142.3077  142.3418  163.9681 C.3     1  UNL1        0.0955
      5 C         141.1545  143.3009  163.9820 C.3     1  UNL1        0.0287
      6 C         140.9833  144.2842  162.8622 C.3     1  UNL1        0.0193
      7 O         142.1724  142.8986  163.3769 O.3     1  UNL1       -0.3571
      8 C         142.0176  143.7877  162.3644 C.3     1  UNL1        0.1562
      9 N         141.7939  145.2916  160.6088 N.3     1  UNL1       -0.2912
     10 H         141.5284  146.1796  161.0347 H       1  UNL1        0.1236
     11 C         140.8008  145.0203  159.5180 C.3     1  UNL1        0.1353
     12 O         142.1284  137.7296  157.1027 O.2     1  UNL1       -0.2707
     13 C         141.1982  138.7618  157.6681 C.2     1  UNL1        0.2718
     14 C         139.7806  138.3957  157.9937 C.3     1  UNL1        0.2899
     15 O         138.8503  139.4277  158.5591 O.3     1  UNL1       -0.4612
     16 C         139.3380  140.8259  158.7988 C.ar    1  UNL1        0.1898
     17 C         138.4079  141.8580  159.3641 C.ar    1  UNL1        0.1400
     18 N         138.8955  143.2561  159.6038 N.ar    1  UNL1       -0.2245
     19 C         140.3132  143.6222  159.2782 C.ar    1  UNL1        0.1567
     20 N         141.2433  142.5900  158.7128 N.ar    1  UNL1       -0.2113
     21 C         140.7557  141.1919  158.4731 C.ar    1  UNL1        0.1715
     22 N         141.6858  140.1599  157.9078 N.am    1  UNL1       -0.2638
     23 H         142.6164  140.4002  157.6941 H       1  UNL1        0.1565
     24 C         142.4790  141.3585  165.0879 C.3     1  UNL1        0.0604
     25 C         142.6172  141.8461  166.4996 C.3     1  UNL1        0.1335
     26 O         143.8043  142.5878  165.9606 O.3     1  UNL1       -0.3806
     27 C         143.0036  142.4888  167.7987 C.3     1  UNL1        0.1402
     28 N         142.0264  142.0424  168.8455 N.ar    1  UNL1       -0.2915
     29 C         141.9104  142.3536  170.3082 C.ar    1  UNL1        0.2611
     30 O         142.9007  143.2723  170.9604 O.2     1  UNL1       -0.2670
     31 C         140.8040  141.7463  171.1188 C.ar    1  UNL1        0.0623
     32 C         139.8136  140.8277  170.4666 C.ar    1  UNL1        0.0254
     33 C         139.9296  140.5164  169.0039 C.ar    1  UNL1        0.0972
     34 N         139.0950  139.6460  168.1005 N.ar    1  UNL1       -0.2400
     35 C         139.3369  139.4285  166.6362 C.ar    1  UNL1        0.1282
     36 C         140.4900  140.1068  165.9577 C.ar    1  UNL1        0.1588
     37 F         140.7319  139.8893  164.4934 F       1  UNL1       -0.2027
     38 C         141.4012  141.0025  166.7435 C.ar    1  UNL1        0.0500
     39 C         141.0360  141.1238  168.1933 C.ar    1  UNL1        0.0806
     40 H         144.2210  143.0942  166.6754 H       1  UNL1        0.2108
@<TRIPOS>BOND
     1    12    13    2
     2    13    14    1
     3    14    15    1
     4    15    16    1
     5    16    17   ar
     6    17    18   ar
     7    18    19   ar
     8    19    11    1
     9    11     9    1
    10     9     1    1
    11     1     2    1
    12     2     3    1
    13     3     4    1
    14     4    24    1
    15    24    25    1
    16    25    26    1
    17    25    27    1
    18    27    28    1
    19    28    29   ar
    20    29    30    2
    21    29    31   ar
    22    31    32   ar
    23    32    33   ar
    24    33    34   ar
    25    34    35   ar
    26    35    36   ar
    27    36    37    1
    28    36    38   ar
    29    38    39   ar
    30     4     5    1
    31     5     6    1
    32     4     7    1
    33     7     8    1
    34    19    20   ar
    35    20    21   ar
    36    21    22    1
    37    22    13   am
    38    21    16   ar
    39     6     1    1
    40     8     1    1
    41    38    25    1
    42    39    28   ar
    43    39    33   ar
    44     9    10    1
    45    26    40    1
    46    22    23    1
@<TRIPOS>MOLECULE
*****
 40 46 0 0 0
SMALL
GASTEIGER

@<TRIPOS>ATOM
      1 C         138.0913  140.5565  161.0587 C.3     1  UNL1        0.0701
      2 C         138.4173  139.0932  161.0107 C.3     1  UNL1        0.0193
      3 C         138.7927  138.3668  162.2682 C.3     1  UNL1        0.0287
      4 C         138.8421  139.1037  163.5739 C.3     1  UNL1        0.0955
      5 C         138.5160  140.5671  163.6219 C.3     1  UNL1        0.0287
      6 C         138.1406  141.2934  162.3643 C.3     1  UNL1        0.0193
      7 O         138.6310  139.5444  162.9111 O.3     1  UNL1       -0.3571
      8 C         138.2916  140.2012  161.7741 C.3     1  UNL1        0.1562
      9 N         137.7159  141.2829  159.8012 N.3     1  UNL1       -0.2912
     10 H         137.3684  140.5807  159.1480 H       1  UNL1        0.1236
     11 C         138.7450  142.0879  159.0645 C.3     1  UNL1        0.1353
     12 O         145.7272  141.7239  162.5094 O.2     1  UNL1       -0.2707
     13 C         144.5123  142.5108  162.1155 C.2     1  UNL1        0.2718
     14 C         144.4102  143.9632  162.4761 C.3     1  UNL1        0.2899
     15 O         143.1954  144.7501  162.0823 O.3     1  UNL1       -0.4612
     16 C         142.0828  144.0846  161.3278 C.ar    1  UNL1        0.1898
     17 C         140.8681  144.8714  160.9339 C.ar    1  UNL1        0.1400
     18 N         139.7555  144.2059  160.1795 N.ar    1  UNL1       -0.2245
     19 C         139.8577  142.7534  159.8189 C.ar    1  UNL1        0.1567
     20 N         141.0724  141.9666  160.2128 N.ar    1  UNL1       -0.2113
     21 C         142.1850  142.6322  160.9673 C.ar    1  UNL1        0.1715
     22 N         143.3997  141.8452  161.3611 N.am    1  UNL1       -0.2638
     23 H         143.4668  140.8920  161.1244 H       1  UNL1        0.1565
     24 C         139.2175  138.3773  164.8314 C.3     1  UNL1        0.0604
     25 C         139.0936  139.0636  166.1594 C.3     1  UNL1        0.1335
     26 O         137.6286  139.0789  165.8378 O.3     1  UNL1       -0.3806
     27 C         138.6635  139.7531  167.4202 C.3     1  UNL1        0.1402
     28 N         139.8886  140.0205  168.2435 N.ar    1  UNL1       -0.2915
     29 C         140.0764  140.6736  169.5807 C.ar    1  UNL1        0.2611
     30 O         138.8891  141.1978  170.3327 O.2     1  UNL1       -0.2670
     31 C         141.4515  140.8024  170.1658 C.ar    1  UNL1        0.0623
     32 C         142.6388  140.2782  169.4138 C.ar    1  UNL1        0.0254
     33 C         142.4510  139.6251  168.0766 C.ar    1  UNL1        0.0972
     34 N         143.4403  139.0190  167.1152 N.ar    1  UNL1       -0.2400
     35 C         143.0989  138.3934  165.7954 C.ar    1  UNL1        0.1282
     36 C         141.6710  138.3363  165.3395 C.ar    1  UNL1        0.1588
     37 F         141.3295  137.7106  164.0197 F       1  UNL1       -0.2027
     38 C         140.5845  138.9049  166.2034 C.ar    1  UNL1        0.0500
     39 C         141.0759  139.4962  167.4914 C.ar    1  UNL1        0.0806
     40 H         137.1430  139.5039  166.5620 H       1  UNL1        0.2108
@<TRIPOS>BOND
     1    12    13    2
     2    13    14    1
     3    14    15    1
     4    15    16    1
     5    16    17   ar
     6    17    18   ar
     7    18    19   ar
     8    19    11    1
     9    11     9    1
    10     9     1    1
    11     1     2    1
    12     2     3    1
    13     3     4    1
    14     4    24    1
    15    24    25    1
    16    25    26    1
    17    25    27    1
    18    27    28    1
    19    28    29   ar
    20    29    30    2
    21    29    31   ar
    22    31    32   ar
    23    32    33   ar
    24    33    34   ar
    25    34    35   ar
    26    35    36   ar
    27    36    37    1
    28    36    38   ar
    29    38    39   ar
    30     4     5    1
    31     5     6    1
    32     4     7    1
    33     7     8    1
    34    19    20   ar
    35    20    21   ar
    36    21    22    1
    37    22    13   am
    38    21    16   ar
    39     6     1    1
    40     8     1    1
    41    38    25    1
    42    39    28   ar
    43    39    33   ar
    44     9    10    1
    45    26    40    1
    46    22    23    1
@<TRIPOS>MOLECULE
*****
 40 46 0 0 0
SMALL
GASTEIGER

@<TRIPOS>ATOM
      1 C         137.6750  139.5095  161.3176 C.3     1  UNL1        0.0701
      2 C         138.2157  138.1505  161.6506 C.3     1  UNL1        0.0193
      3 C         139.0792  137.9632  162.8627 C.3     1  UNL1        0.0287
      4 C         139.4020  139.1349  163.7420 C.3     1  UNL1        0.0955
      5 C         138.8614  140.4939  163.4090 C.3     1  UNL1        0.0287
      6 C         137.9979  140.6811  162.1968 C.3     1  UNL1        0.0193
      7 O         138.9247  139.2866  163.0884 O.3     1  UNL1       -0.3571
      8 C         138.1440  139.4560  161.9924 C.3     1  UNL1        0.1562
      9 N         136.8115  139.6968  160.1055 N.3     1  UNL1       -0.2912
     10 H         136.4675  138.7730  159.8434 H       1  UNL1        0.1236
     11 C         137.3851  140.3134  158.8642 C.3     1  UNL1        0.1353
     12 O         144.8256  142.6169  159.1540 O.2     1  UNL1       -0.2707
     13 C         143.7877  141.6297  158.7085 C.2     1  UNL1        0.2718
     14 C         144.1921  140.4233  157.9142 C.3     1  UNL1        0.2899
     15 O         143.1543  139.4361  157.4688 O.3     1  UNL1       -0.4612
     16 C         141.7120  139.6554  157.8176 C.ar    1  UNL1        0.1898
     17 C         140.6741  138.6683  157.3722 C.ar    1  UNL1        0.1400
     18 N         139.2318  138.8877  157.7211 N.ar    1  UNL1       -0.2245
     19 C         138.8274  140.0941  158.5154 C.ar    1  UNL1        0.1567
     20 N         139.8653  141.0812  158.9608 N.ar    1  UNL1       -0.2113
     21 C         141.3076  140.8619  158.6119 C.ar    1  UNL1        0.1715
     22 N         142.3454  141.8490  159.0574 N.am    1  UNL1       -0.2638
     23 H         142.0799  142.6409  159.5787 H       1  UNL1        0.1565
     24 C         140.2655  138.9476  164.9541 C.3     1  UNL1        0.0604
     25 C         139.7799  139.4025  166.2984 C.3     1  UNL1        0.1335
     26 O         138.6568  138.4416  166.0430 O.3     1  UNL1       -0.3806
     27 C         139.0596  139.6565  167.5894 C.3     1  UNL1        0.1402
     28 N         139.8390  140.6794  168.3617 N.ar    1  UNL1       -0.2915
     29 C         139.6094  141.3152  169.7006 C.ar    1  UNL1        0.2611
     30 O         138.4073  140.9371  170.5143 O.2     1  UNL1       -0.2670
     31 C         140.5819  142.3293  170.2259 C.ar    1  UNL1        0.0623
     32 C         141.7840  142.7074  169.4123 C.ar    1  UNL1        0.0254
     33 C         142.0136  142.0715  168.0733 C.ar    1  UNL1        0.0972
     34 N         143.1117  142.2541  167.0579 N.ar    1  UNL1       -0.2400
     35 C         143.2088  141.5377  165.7437 C.ar    1  UNL1        0.1282
     36 C         142.1552  140.5448  165.3511 C.ar    1  UNL1        0.1588
     37 F         142.2523  139.8283  164.0369 F       1  UNL1       -0.2027
     38 C         141.0046  140.2683  166.2729 C.ar    1  UNL1        0.0500
     39 C         141.0411  141.0575  167.5480 C.ar    1  UNL1        0.0806
     40 H         138.0451  138.4517  166.7957 H       1  UNL1        0.2108
@<TRIPOS>BOND
     1    12    13    2
     2    13    14    1
     3    14    15    1
     4    15    16    1
     5    16    17   ar
     6    17    18   ar
     7    18    19   ar
     8    19    11    1
     9    11     9    1
    10     9     1    1
    11     1     2    1
    12     2     3    1
    13     3     4    1
    14     4    24    1
    15    24    25    1
    16    25    26    1
    17    25    27    1
    18    27    28    1
    19    28    29   ar
    20    29    30    2
    21    29    31   ar
    22    31    32   ar
    23    32    33   ar
    24    33    34   ar
    25    34    35   ar
    26    35    36   ar
    27    36    37    1
    28    36    38   ar
    29    38    39   ar
    30     4     5    1
    31     5     6    1
    32     4     7    1
    33     7     8    1
    34    19    20   ar
    35    20    21   ar
    36    21    22    1
    37    22    13   am
    38    21    16   ar
    39     6     1    1
    40     8     1    1
    41    38    25    1
    42    39    28   ar
    43    39    33   ar
    44     9    10    1
    45    26    40    1
    46    22    23    1
