@<TRIPOS>MOLECULE
*****
 29 32 0 0 0
SMALL
GASTEIGER

@<TRIPOS>ATOM
      1 C         138.8295  139.3512  167.0665 C.3     1  UNL1        0.0040
      2 C         139.9943  140.1938  167.4946 C.3     1  UNL1        0.0424
      3 C         139.0112  139.9096  168.5913 C.3     1  UNL1        0.0109
      4 C         139.2448  140.4567  169.9682 C.3     1  UNL1        0.0563
      5 C         140.4616  141.2880  170.2485 C.2     1  UNL1        0.1134
      6 F         140.6951  141.8351  171.6256 F       1  UNL1       -0.2092
      7 C         141.4446  141.5722  169.1519 C.2     1  UNL1       -0.0012
      8 C         141.2110  141.0251  167.7749 C.3     1  UNL1        0.0288
      9 C         141.9986  141.1376  166.5032 C.3     1  UNL1        0.0242
     10 C         141.2686  140.3759  165.4370 C.3     1  UNL1        0.0981
     11 C         140.0299  139.7926  166.0497 C.3     1  UNL1        0.1804
     12 N         141.7013  140.2241  164.0088 N.3     1  UNL1       -0.2697
     13 C         141.4365  141.3241  163.0239 C.3     1  UNL1        0.0722
     14 C         141.8692  141.1723  161.5958 C.3     1  UNL1        0.0187
     15 C         142.5668  139.9206  161.1524 C.3     1  UNL1        0.0183
     16 C         142.8316  138.8206  162.1373 C.3     1  UNL1        0.0670
     17 N         143.5292  137.5689  161.6940 N.3     1  UNL1       -0.3211
     18 C         142.3989  138.9724  163.5655 C.3     1  UNL1        0.0878
     19 H         143.6252  136.9342  162.4867 H       1  UNL1        0.1189
     20 H         144.4537  137.8044  161.3332 H       1  UNL1        0.1189
     21 O         139.0065  138.9551  165.3418 O.3     1  UNL1       -0.4778
     22 C         138.6757  139.2304  163.9049 C.ar    1  UNL1        0.1385
     23 C         138.9953  138.2102  162.8528 C.ar    1  UNL1        0.0376
     24 C         138.6645  138.4856  161.4159 C.ar    1  UNL1        0.0134
     25 C         138.0141  139.7813  161.0311 C.ar    1  UNL1        0.0686
     26 C         137.6944  140.8016  162.0831 C.ar    1  UNL1        0.0134
     27 C         138.0252  140.5262  163.5200 C.ar    1  UNL1        0.0376
     28 C         137.6833  140.0567  159.5942 C.1     1  UNL1        0.1004
     29 N         137.3525  140.3321  158.1573 N.1     1  UNL1       -0.1908
@<TRIPOS>BOND
     1     2     1    1
     2     2     3    1
     3     3     4    1
     4     4     5    1
     5     5     6    1
     6     5     7    2
     7     7     8    1
     8     8     9    1
     9     9    10    1
    10    10    12    1
    11    12    13    1
    12    13    14    1
    13    14    15    1
    14    15    16    1
    15    16    17    1
    16    16    18    1
    17    10    11    1
    18    11    21    1
    19    21    22    1
    20    22    23   ar
    21    23    24   ar
    22    24    25   ar
    23    25    28    1
    24    28    29    3
    25    25    26   ar
    26    26    27   ar
    27     8     2    1
    28    18    12    1
    29    27    22   ar
    30    11     2    1
    31    17    19    1
    32    17    20    1
@<TRIPOS>MOLECULE
*****
 29 32 0 0 0
SMALL
GASTEIGER

@<TRIPOS>ATOM
      1 C         142.8057  142.0159  166.3391 C.3     1  UNL1        0.0040
      2 C         141.8810  141.3759  167.3318 C.3     1  UNL1        0.0424
      3 C         142.9545  142.2192  167.9535 C.3     1  UNL1        0.0109
      4 C         143.0286  142.3592  169.4450 C.3     1  UNL1        0.0563
      5 C         142.0293  141.6560  170.3150 C.2     1  UNL1        0.1134
      6 F         142.1035  141.7961  171.8066 F       1  UNL1       -0.2092
      7 C         140.9558  140.8127  169.6933 C.2     1  UNL1       -0.0012
      8 C         140.8817  140.6727  168.2018 C.3     1  UNL1        0.0288
      9 C         139.9427  139.9154  167.3102 C.3     1  UNL1        0.0242
     10 C         140.3617  140.1506  165.8892 C.3     1  UNL1        0.0981
     11 C         141.5597  141.0532  165.9026 C.3     1  UNL1        0.1804
     12 N         139.6991  139.5829  164.6691 N.3     1  UNL1       -0.2697
     13 C         140.0236  138.1892  164.2194 C.3     1  UNL1        0.0722
     14 C         139.3610  137.6215  162.9993 C.3     1  UNL1        0.0187
     15 C         138.3739  138.4474  162.2289 C.3     1  UNL1        0.0183
     16 C         138.0495  139.8411  162.6787 C.3     1  UNL1        0.0670
     17 N         137.0623  140.6671  161.9084 N.3     1  UNL1       -0.3211
     18 C         138.7120  140.4088  163.8988 C.3     1  UNL1        0.0878
     19 H         136.9637  141.5803  162.3519 H       1  UNL1        0.1189
     20 H         136.1584  140.1947  161.8981 H       1  UNL1        0.1189
     21 O         142.3054  141.5466  164.6983 O.3     1  UNL1       -0.4778
     22 C         142.4463  140.6674  163.4912 C.ar    1  UNL1        0.1385
     23 C         143.2604  139.4100  163.5700 C.ar    1  UNL1        0.0376
     24 C         143.4013  138.5309  162.3629 C.ar    1  UNL1        0.0134
     25 C         142.7281  138.9090  161.0769 C.ar    1  UNL1        0.0686
     26 C         141.9140  140.1664  160.9980 C.ar    1  UNL1        0.0134
     27 C         141.7731  141.0456  162.2051 C.ar    1  UNL1        0.0376
     28 C         142.8690  138.0298  159.8698 C.1     1  UNL1        0.1004
     29 N         143.0099  137.1507  158.6626 N.1     1  UNL1       -0.1908
@<TRIPOS>BOND
     1     2     1    1
     2     2     3    1
     3     3     4    1
     4     4     5    1
     5     5     6    1
     6     5     7    2
     7     7     8    1
     8     8     9    1
     9     9    10    1
    10    10    12    1
    11    12    13    1
    12    13    14    1
    13    14    15    1
    14    15    16    1
    15    16    17    1
    16    16    18    1
    17    10    11    1
    18    11    21    1
    19    21    22    1
    20    22    23   ar
    21    23    24   ar
    22    24    25   ar
    23    25    28    1
    24    28    29    3
    25    25    26   ar
    26    26    27   ar
    27     8     2    1
    28    18    12    1
    29    27    22   ar
    30    11     2    1
    31    17    19    1
    32    17    20    1
@<TRIPOS>MOLECULE
*****
 29 32 0 0 0
SMALL
GASTEIGER

@<TRIPOS>ATOM
      1 C         143.1776  141.9748  167.4957 C.3     1  UNL1        0.0040
      2 C         141.7351  141.5961  167.6564 C.3     1  UNL1        0.0424
      3 C         142.5945  141.2383  168.8325 C.3     1  UNL1        0.0109
      4 C         141.9881  140.5624  170.0265 C.3     1  UNL1        0.0563
      5 C         140.5223  140.2444  170.0442 C.2     1  UNL1        0.1134
      6 F         139.9160  139.5685  171.2382 F       1  UNL1       -0.2092
      7 C         139.6629  140.6022  168.8681 C.2     1  UNL1       -0.0012
      8 C         140.2693  141.2781  167.6742 C.3     1  UNL1        0.0288
      9 C         139.6774  141.7474  166.3783 C.3     1  UNL1        0.0242
     10 C         140.7773  142.3556  165.5596 C.3     1  UNL1        0.0981
     11 C         142.0490  142.2620  166.3495 C.3     1  UNL1        0.1804
     12 N         140.6312  142.9524  164.1912 N.3     1  UNL1       -0.2697
     13 C         140.5576  142.0601  162.9877 C.3     1  UNL1        0.0722
     14 C         140.4115  142.6569  161.6194 C.3     1  UNL1        0.0187
     15 C         140.3390  144.1460  161.4545 C.3     1  UNL1        0.0183
     16 C         140.4126  145.0383  162.6579 C.3     1  UNL1        0.0670
     17 N         140.3400  146.5275  162.4930 N.3     1  UNL1       -0.3211
     18 C         140.5587  144.4415  164.0263 C.3     1  UNL1        0.0878
     19 H         140.4049  146.9744  163.4076 H       1  UNL1        0.1189
     20 H         139.4541  146.7783  162.0542 H       1  UNL1        0.1189
     21 O         143.3979  142.7490  165.9098 O.3     1  UNL1       -0.4778
     22 C         143.7727  142.7101  164.4579 C.ar    1  UNL1        0.1385
     23 C         143.9453  141.3921  163.7629 C.ar    1  UNL1        0.0376
     24 C         144.3201  141.3533  162.3110 C.ar    1  UNL1        0.0134
     25 C         144.5224  142.6324  161.5541 C.ar    1  UNL1        0.0686
     26 C         144.3498  143.9504  162.2491 C.ar    1  UNL1        0.0134
     27 C         143.9750  143.9893  163.7010 C.ar    1  UNL1        0.0376
     28 C         144.8972  142.5936  160.1022 C.1     1  UNL1        0.1004
     29 N         145.2720  142.5548  158.6503 N.1     1  UNL1       -0.1908
@<TRIPOS>BOND
     1     2     1    1
     2     2     3    1
     3     3     4    1
     4     4     5    1
     5     5     6    1
     6     5     7    2
     7     7     8    1
     8     8     9    1
     9     9    10    1
    10    10    12    1
    11    12    13    1
    12    13    14    1
    13    14    15    1
    14    15    16    1
    15    16    17    1
    16    16    18    1
    17    10    11    1
    18    11    21    1
    19    21    22    1
    20    22    23   ar
    21    23    24   ar
    22    24    25   ar
    23    25    28    1
    24    28    29    3
    25    25    26   ar
    26    26    27   ar
    27     8     2    1
    28    18    12    1
    29    27    22   ar
    30    11     2    1
    31    17    19    1
    32    17    20    1
@<TRIPOS>MOLECULE
*****
 29 32 0 0 0
SMALL
GASTEIGER

@<TRIPOS>ATOM
      1 C         140.2353  138.7930  163.5128 C.3     1  UNL1        0.0040
      2 C         139.6890  139.3273  164.8036 C.3     1  UNL1        0.0424
      3 C         139.2457  137.9301  164.4853 C.3     1  UNL1        0.0109
      4 C         138.3354  137.1993  165.4271 C.3     1  UNL1        0.0563
      5 C         137.8682  137.8656  166.6872 C.2     1  UNL1        0.1134
      6 F         136.9578  137.1347  167.6290 F       1  UNL1       -0.2092
      7 C         138.3115  139.2628  167.0055 C.2     1  UNL1       -0.0012
      8 C         139.2219  139.9936  166.0637 C.3     1  UNL1        0.0288
      9 C         139.8209  141.3681  166.1107 C.3     1  UNL1        0.0242
     10 C         140.6582  141.5512  164.8797 C.3     1  UNL1        0.0981
     11 C         140.5767  140.2899  164.0719 C.3     1  UNL1        0.1804
     12 N         141.4397  142.7798  164.5197 N.3     1  UNL1       -0.2697
     13 C         142.9040  142.8567  164.8359 C.3     1  UNL1        0.0722
     14 C         143.6855  144.0853  164.4759 C.3     1  UNL1        0.0187
     15 C         143.0028  145.2371  163.7997 C.3     1  UNL1        0.0183
     16 C         141.5386  145.1603  163.4835 C.3     1  UNL1        0.0670
     17 N         140.8558  146.3121  162.8073 N.3     1  UNL1       -0.3211
     18 C         140.7570  143.9316  163.8435 C.3     1  UNL1        0.0878
     19 H         139.8698  146.0900  162.6703 H       1  UNL1        0.1189
     20 H         141.2945  146.4839  161.9027 H       1  UNL1        0.1189
     21 O         141.2624  140.0358  162.7622 O.3     1  UNL1       -0.4778
     22 C         141.4641  141.1606  161.7906 C.ar    1  UNL1        0.1385
     23 C         140.2838  141.7722  161.0957 C.ar    1  UNL1        0.0376
     24 C         140.4855  142.8970  160.1240 C.ar    1  UNL1        0.0134
     25 C         141.8675  143.4101  159.8471 C.ar    1  UNL1        0.0686
     26 C         143.0479  142.7985  160.5419 C.ar    1  UNL1        0.0134
     27 C         142.8462  141.6738  161.5136 C.ar    1  UNL1        0.0376
     28 C         142.0693  144.5349  158.8754 C.1     1  UNL1        0.1004
     29 N         142.2710  145.6596  157.9037 N.1     1  UNL1       -0.1908
@<TRIPOS>BOND
     1     2     1    1
     2     2     3    1
     3     3     4    1
     4     4     5    1
     5     5     6    1
     6     5     7    2
     7     7     8    1
     8     8     9    1
     9     9    10    1
    10    10    12    1
    11    12    13    1
    12    13    14    1
    13    14    15    1
    14    15    16    1
    15    16    17    1
    16    16    18    1
    17    10    11    1
    18    11    21    1
    19    21    22    1
    20    22    23   ar
    21    23    24   ar
    22    24    25   ar
    23    25    28    1
    24    28    29    3
    25    25    26   ar
    26    26    27   ar
    27     8     2    1
    28    18    12    1
    29    27    22   ar
    30    11     2    1
    31    17    19    1
    32    17    20    1
@<TRIPOS>MOLECULE
*****
 29 32 0 0 0
SMALL
GASTEIGER

@<TRIPOS>ATOM
      1 C         143.1534  139.5692  166.9789 C.3     1  UNL1        0.0040
      2 C         141.8835  140.2358  167.4184 C.3     1  UNL1        0.0424
      3 C         142.5290  139.3936  168.4786 C.3     1  UNL1        0.0109
      4 C         141.8968  139.2797  169.8341 C.3     1  UNL1        0.0563
      5 C         140.6192  140.0079  170.1294 C.2     1  UNL1        0.1134
      6 F         139.9870  139.8940  171.4849 F       1  UNL1       -0.2092
      7 C         139.9737  140.8501  169.0692 C.2     1  UNL1       -0.0012
      8 C         140.6058  140.9640  167.7137 C.3     1  UNL1        0.0288
      9 C         140.2037  141.7141  166.4785 C.3     1  UNL1        0.0242
     10 C         141.2328  141.4494  165.4198 C.3     1  UNL1        0.0981
     11 C         142.2710  140.5357  166.0007 C.3     1  UNL1        0.1804
     12 N         141.2251  142.0014  164.0251 N.3     1  UNL1       -0.2697
     13 C         140.3950  141.3439  162.9628 C.3     1  UNL1        0.0722
     14 C         140.3873  141.8959  161.5681 C.3     1  UNL1        0.0187
     15 C         141.2097  143.1055  161.2357 C.3     1  UNL1        0.0183
     16 C         142.0398  143.7630  162.2980 C.3     1  UNL1        0.0670
     17 N         142.8623  144.9727  161.9656 N.3     1  UNL1       -0.3211
     18 C         142.0475  143.2110  163.6927 C.3     1  UNL1        0.0878
     19 H         143.3588  145.2859  162.7997 H       1  UNL1        0.1189
     20 H         142.2510  145.7186  161.6335 H       1  UNL1        0.1189
     21 O         143.4837  140.0137  165.2889 O.3     1  UNL1       -0.4778
     22 C         143.3752  139.5424  163.8691 C.ar    1  UNL1        0.1385
     23 C         144.1713  140.2174  162.7918 C.ar    1  UNL1        0.0376
     24 C         144.0627  139.7461  161.3719 C.ar    1  UNL1        0.0134
     25 C         143.1580  138.5997  161.0293 C.ar    1  UNL1        0.0686
     26 C         142.3619  137.9246  162.1065 C.ar    1  UNL1        0.0134
     27 C         142.4705  138.3960  163.5264 C.ar    1  UNL1        0.0376
     28 C         143.0495  138.1284  159.6094 C.1     1  UNL1        0.1004
     29 N         142.9409  137.6570  158.1895 N.1     1  UNL1       -0.1908
@<TRIPOS>BOND
     1     2     1    1
     2     2     3    1
     3     3     4    1
     4     4     5    1
     5     5     6    1
     6     5     7    2
     7     7     8    1
     8     8     9    1
     9     9    10    1
    10    10    12    1
    11    12    13    1
    12    13    14    1
    13    14    15    1
    14    15    16    1
    15    16    17    1
    16    16    18    1
    17    10    11    1
    18    11    21    1
    19    21    22    1
    20    22    23   ar
    21    23    24   ar
    22    24    25   ar
    23    25    28    1
    24    28    29    3
    25    25    26   ar
    26    26    27   ar
    27     8     2    1
    28    18    12    1
    29    27    22   ar
    30    11     2    1
    31    17    19    1
    32    17    20    1
@<TRIPOS>MOLECULE
*****
 29 32 0 0 0
SMALL
GASTEIGER

@<TRIPOS>ATOM
      1 C         142.7606  139.0267  167.0758 C.3     1  UNL1        0.0040
      2 C         141.6551  139.9401  167.5159 C.3     1  UNL1        0.0424
      3 C         142.6362  139.6034  168.5995 C.3     1  UNL1        0.0109
      4 C         142.4570  140.1711  169.9763 C.3     1  UNL1        0.0563
      5 C         141.2967  141.0754  170.2695 C.2     1  UNL1        0.1134
      6 F         141.1175  141.6431  171.6464 F       1  UNL1       -0.2092
      7 C         140.3156  141.4121  169.1859 C.2     1  UNL1       -0.0012
      8 C         140.4949  140.8444  167.8091 C.3     1  UNL1        0.0288
      9 C         139.6960  140.9970  166.5487 C.3     1  UNL1        0.0242
     10 C         140.3626  140.1870  165.4765 C.3     1  UNL1        0.0981
     11 C         141.5733  139.5338  166.0743 C.3     1  UNL1        0.1804
     12 N         139.8996  140.0536  164.0560 N.3     1  UNL1       -0.2697
     13 C         140.2688  141.0988  163.0456 C.3     1  UNL1        0.0722
     14 C         139.8059  140.9655  161.6251 C.3     1  UNL1        0.0187
     15 C         138.9737  139.7868  161.2150 C.3     1  UNL1        0.0183
     16 C         138.6045  138.7416  162.2254 C.3     1  UNL1        0.0670
     17 N         137.7722  137.5628  161.8154 N.3     1  UNL1       -0.3211
     18 C         139.0674  138.8749  163.6459 C.3     1  UNL1        0.0878
     19 H         137.6183  136.9581  162.6223 H       1  UNL1        0.1189
     20 H         138.2585  137.0403  161.0867 H       1  UNL1        0.1189
     21 O         142.5338  138.6325  165.3565 O.3     1  UNL1       -0.4778
     22 C         142.8687  138.8876  163.9169 C.ar    1  UNL1        0.1385
     23 C         142.3709  137.9535  162.8540 C.ar    1  UNL1        0.0376
     24 C         142.7059  138.2088  161.4144 C.ar    1  UNL1        0.0134
     25 C         143.5386  139.3981  161.0375 C.ar    1  UNL1        0.0686
     26 C         144.0364  140.3322  162.1003 C.ar    1  UNL1        0.0134
     27 C         143.7015  140.0770  163.5400 C.ar    1  UNL1        0.0376
     28 C         143.8736  139.6533  159.5978 C.1     1  UNL1        0.1004
     29 N         144.2086  139.9085  158.1582 N.1     1  UNL1       -0.1908
@<TRIPOS>BOND
     1     2     1    1
     2     2     3    1
     3     3     4    1
     4     4     5    1
     5     5     6    1
     6     5     7    2
     7     7     8    1
     8     8     9    1
     9     9    10    1
    10    10    12    1
    11    12    13    1
    12    13    14    1
    13    14    15    1
    14    15    16    1
    15    16    17    1
    16    16    18    1
    17    10    11    1
    18    11    21    1
    19    21    22    1
    20    22    23   ar
    21    23    24   ar
    22    24    25   ar
    23    25    28    1
    24    28    29    3
    25    25    26   ar
    26    26    27   ar
    27     8     2    1
    28    18    12    1
    29    27    22   ar
    30    11     2    1
    31    17    19    1
    32    17    20    1
@<TRIPOS>MOLECULE
*****
 29 32 0 0 0
SMALL
GASTEIGER

@<TRIPOS>ATOM
      1 C         139.3379  140.7064  167.0739 C.3     1  UNL1        0.0040
      2 C         140.7725  141.0403  167.3577 C.3     1  UNL1        0.0424
      3 C         140.1017  140.2563  168.4464 C.3     1  UNL1        0.0109
      4 C         140.8676  139.8785  169.6795 C.3     1  UNL1        0.0563
      5 C         142.3043  140.2848  169.8239 C.2     1  UNL1        0.1134
      6 F         143.0702  139.9070  171.0571 F       1  UNL1       -0.2092
      7 C         142.9750  141.0689  168.7352 C.2     1  UNL1       -0.0012
      8 C         142.2091  141.4467  167.5021 C.3     1  UNL1        0.0288
      9 C         142.6008  142.2102  166.2718 C.3     1  UNL1        0.0242
     10 C         141.4063  142.2758  165.3670 C.3     1  UNL1        0.0981
     11 C         140.2763  141.5528  166.0381 C.3     1  UNL1        0.1804
     12 N         141.3513  142.9466  164.0265 N.3     1  UNL1       -0.2697
     13 C         141.7692  142.1981  162.7956 C.3     1  UNL1        0.0722
     14 C         141.7143  142.8689  161.4551 C.3     1  UNL1        0.0187
     15 C         141.2414  144.2882  161.3454 C.3     1  UNL1        0.0183
     16 C         140.8235  145.0366  162.5763 C.3     1  UNL1        0.0670
     17 N         140.3507  146.4560  162.4667 N.3     1  UNL1       -0.3211
     18 C         140.8785  144.3658  163.9168 C.3     1  UNL1        0.0878
     19 H         140.1091  146.8064  163.3937 H       1  UNL1        0.1189
     20 H         139.5289  146.4950  161.8637 H       1  UNL1        0.1189
     21 O         138.8929  141.3736  165.4865 O.3     1  UNL1       -0.4778
     22 C         138.6947  141.1502  164.0166 C.ar    1  UNL1        0.1385
     23 C         139.1507  139.8687  163.3845 C.ar    1  UNL1        0.0376
     24 C         138.9524  139.6453  161.9145 C.ar    1  UNL1        0.0134
     25 C         138.2981  140.7035  161.0767 C.ar    1  UNL1        0.0686
     26 C         137.8420  141.9851  161.7087 C.ar    1  UNL1        0.0134
     27 C         138.0403  142.2084  163.1787 C.ar    1  UNL1        0.0376
     28 C         138.0998  140.4801  159.6067 C.1     1  UNL1        0.1004
     29 N         137.9015  140.2568  158.1368 N.1     1  UNL1       -0.1908
@<TRIPOS>BOND
     1     2     1    1
     2     2     3    1
     3     3     4    1
     4     4     5    1
     5     5     6    1
     6     5     7    2
     7     7     8    1
     8     8     9    1
     9     9    10    1
    10    10    12    1
    11    12    13    1
    12    13    14    1
    13    14    15    1
    14    15    16    1
    15    16    17    1
    16    16    18    1
    17    10    11    1
    18    11    21    1
    19    21    22    1
    20    22    23   ar
    21    23    24   ar
    22    24    25   ar
    23    25    28    1
    24    28    29    3
    25    25    26   ar
    26    26    27   ar
    27     8     2    1
    28    18    12    1
    29    27    22   ar
    30    11     2    1
    31    17    19    1
    32    17    20    1
@<TRIPOS>MOLECULE
*****
 29 32 0 0 0
SMALL
GASTEIGER

@<TRIPOS>ATOM
      1 C         139.6762  140.6730  166.7240 C.3     1  UNL1        0.0040
      2 C         140.7120  141.1309  167.7076 C.3     1  UNL1        0.0424
      3 C         139.5498  140.4181  168.3330 C.3     1  UNL1        0.0109
      4 C         139.5026  140.2209  169.8192 C.3     1  UNL1        0.0563
      5 C         140.6175  140.7365  170.6800 C.2     1  UNL1        0.1134
      6 F         140.5702  140.5392  172.1663 F       1  UNL1       -0.2092
      7 C         141.7797  141.4493  170.0547 C.2     1  UNL1       -0.0012
      8 C         141.8270  141.6465  168.5685 C.3     1  UNL1        0.0288
      9 C         142.8356  142.3056  167.6750 C.3     1  UNL1        0.0242
     10 C         142.3441  142.1973  166.2620 C.3     1  UNL1        0.0981
     11 C         141.0317  141.4713  166.2821 C.3     1  UNL1        0.1804
     12 N         143.0424  142.7227  165.0428 N.3     1  UNL1       -0.2697
     13 C         142.5029  143.9273  164.3302 C.3     1  UNL1        0.0722
     14 C         143.2012  144.4527  163.1110 C.3     1  UNL1        0.0187
     15 C         144.4390  143.7735  162.6045 C.3     1  UNL1        0.0183
     16 C         144.9785  142.5690  163.3172 C.3     1  UNL1        0.0670
     17 N         146.2164  141.8898  162.8107 N.3     1  UNL1       -0.3211
     18 C         144.2802  142.0436  164.5363 C.3     1  UNL1        0.0878
     19 H         146.4382  141.0955  163.4110 H       1  UNL1        0.1189
     20 H         146.9940  142.5498  162.8191 H       1  UNL1        0.1189
     21 O         140.1871  141.1432  165.0867 O.3     1  UNL1       -0.4778
     22 C         140.8352  140.6927  163.8113 C.ar    1  UNL1        0.1385
     23 C         141.7046  139.4704  163.8028 C.ar    1  UNL1        0.0376
     24 C         142.3528  139.0198  162.5273 C.ar    1  UNL1        0.0134
     25 C         142.1315  139.7915  161.2603 C.ar    1  UNL1        0.0686
     26 C         141.2621  141.0139  161.2686 C.ar    1  UNL1        0.0134
     27 C         140.6140  141.4644  162.5441 C.ar    1  UNL1        0.0376
     28 C         142.7797  139.3410  159.9848 C.1     1  UNL1        0.1004
     29 N         143.4278  138.8905  158.7092 N.1     1  UNL1       -0.1908
@<TRIPOS>BOND
     1     2     1    1
     2     2     3    1
     3     3     4    1
     4     4     5    1
     5     5     6    1
     6     5     7    2
     7     7     8    1
     8     8     9    1
     9     9    10    1
    10    10    12    1
    11    12    13    1
    12    13    14    1
    13    14    15    1
    14    15    16    1
    15    16    17    1
    16    16    18    1
    17    10    11    1
    18    11    21    1
    19    21    22    1
    20    22    23   ar
    21    23    24   ar
    22    24    25   ar
    23    25    28    1
    24    28    29    3
    25    25    26   ar
    26    26    27   ar
    27     8     2    1
    28    18    12    1
    29    27    22   ar
    30    11     2    1
    31    17    19    1
    32    17    20    1
@<TRIPOS>MOLECULE
*****
 29 32 0 0 0
SMALL
GASTEIGER

@<TRIPOS>ATOM
      1 C         139.7844  140.5082  166.7228 C.3     1  UNL1        0.0040
      2 C         140.8388  140.9518  167.6931 C.3     1  UNL1        0.0424
      3 C         139.6186  140.3692  168.3423 C.3     1  UNL1        0.0109
      4 C         139.5376  140.2738  169.8371 C.3     1  UNL1        0.0563
      5 C         140.6768  140.7610  170.6825 C.2     1  UNL1        0.1134
      6 F         140.5957  140.6655  172.1774 F       1  UNL1       -0.2092
      7 C         141.8970  141.3436  170.0333 C.2     1  UNL1       -0.0012
      8 C         141.9780  141.4390  168.5385 C.3     1  UNL1        0.0288
      9 C         143.0446  141.9619  167.6225 C.3     1  UNL1        0.0242
     10 C         142.5646  141.7978  166.2109 C.3     1  UNL1        0.0981
     11 C         141.2013  141.1736  166.2545 C.3     1  UNL1        0.1804
     12 N         143.3158  142.1893  164.9730 N.3     1  UNL1       -0.2697
     13 C         144.1536  141.1753  164.2520 C.3     1  UNL1        0.0722
     14 C         144.9049  141.5668  163.0141 C.3     1  UNL1        0.0187
     15 C         144.8184  142.9722  162.4973 C.3     1  UNL1        0.0183
     16 C         143.9807  143.9862  163.2183 C.3     1  UNL1        0.0670
     17 N         143.8941  145.3918  162.7015 N.3     1  UNL1       -0.3211
     18 C         143.2294  143.5948  164.4562 C.3     1  UNL1        0.0878
     19 H         143.2863  145.9408  163.3094 H       1  UNL1        0.1189
     20 H         143.5115  145.3834  161.7560 H       1  UNL1        0.1189
     21 O         140.3500  140.8312  165.0679 O.3     1  UNL1       -0.4778
     22 C         140.2816  141.7681  163.8986 C.ar    1  UNL1        0.1385
     23 C         140.8458  141.3542  162.5718 C.ar    1  UNL1        0.0376
     24 C         140.7774  142.2911  161.4024 C.ar    1  UNL1        0.0134
     25 C         140.1446  143.6420  161.5598 C.ar    1  UNL1        0.0686
     26 C         139.5803  144.0560  162.8865 C.ar    1  UNL1        0.0134
     27 C         139.6488  143.1190  164.0559 C.ar    1  UNL1        0.0376
     28 C         140.0762  144.5790  160.3904 C.1     1  UNL1        0.1004
     29 N         140.0077  145.5159  159.2210 N.1     1  UNL1       -0.1908
@<TRIPOS>BOND
     1     2     1    1
     2     2     3    1
     3     3     4    1
     4     4     5    1
     5     5     6    1
     6     5     7    2
     7     7     8    1
     8     8     9    1
     9     9    10    1
    10    10    12    1
    11    12    13    1
    12    13    14    1
    13    14    15    1
    14    15    16    1
    15    16    17    1
    16    16    18    1
    17    10    11    1
    18    11    21    1
    19    21    22    1
    20    22    23   ar
    21    23    24   ar
    22    24    25   ar
    23    25    28    1
    24    28    29    3
    25    25    26   ar
    26    26    27   ar
    27     8     2    1
    28    18    12    1
    29    27    22   ar
    30    11     2    1
    31    17    19    1
    32    17    20    1
