@<TRIPOS>MOLECULE
*****
 31 34 0 0 0
SMALL
GASTEIGER

@<TRIPOS>ATOM
      1 O         142.7895  144.1784  158.6688 O.2     1  UNL1       -0.2522
      2 C         143.0185  143.3163  159.8747 C.2     1  UNL1        0.3079
      3 N         142.0588  143.3677  161.0265 N.am    1  UNL1       -0.2844
      4 N         144.2070  142.4028  159.9289 N.am    1  UNL1       -0.2448
      5 H         142.2091  142.8018  161.8181 H       1  UNL1        0.1513
      6 C         144.4359  141.5407  161.1348 C.ar    1  UNL1        0.0552
      7 C         145.2095  142.0757  162.3033 C.ar    1  UNL1        0.0155
      8 C         145.4385  141.2135  163.5092 C.ar    1  UNL1        0.0080
      9 C         144.8939  139.8164  163.5467 C.ar    1  UNL1        0.0346
     10 BR        145.1229  138.9543  164.7527 Br      1  UNL1       -0.0490
     11 C         144.1203  139.2815  162.3783 C.ar    1  UNL1        0.0080
     12 C         143.8913  140.1436  161.1723 C.ar    1  UNL1        0.0155
     13 C         145.1665  142.3515  158.7771 C.3     1  UNL1        0.0840
     14 C         144.8508  141.5119  157.5748 C.3     1  UNL1        0.0376
     15 C         145.8104  141.4606  156.4230 C.3     1  UNL1        0.0738
     16 N         147.0856  142.2488  156.4735 N.3     1  UNL1       -0.2738
     17 C         147.4012  143.0884  157.6757 C.3     1  UNL1        0.0738
     18 C         146.4417  143.1397  158.8276 C.3     1  UNL1        0.0376
     19 C         148.0451  142.1975  155.3217 C.3     1  UNL1        0.0575
     20 C         147.7928  142.7237  153.9399 C.3     1  UNL1        0.0160
     21 C         149.0173  142.4623  153.1136 C.3     1  UNL1        0.0014
     22 C         150.0262  141.7746  153.9849 C.3     1  UNL1        0.0014
     23 C         149.4254  141.6109  155.3495 C.3     1  UNL1        0.0160
     24 C         140.8703  144.2811  160.9724 C.3     1  UNL1        0.1177
     25 C         139.9090  144.3302  162.1229 C.ar    1  UNL1       -0.0024
     26 C         140.3129  144.9854  163.4103 C.ar    1  UNL1       -0.0003
     27 C         139.3516  145.0345  164.5607 C.ar    1  UNL1        0.0294
     28 C         137.9864  144.4283  164.4236 C.ar    1  UNL1        0.1401
     29 F         137.0251  144.4773  165.5741 F       1  UNL1       -0.2042
     30 C         137.5825  143.7730  163.1362 C.ar    1  UNL1        0.0294
     31 C         138.5438  143.7240  161.9858 C.ar    1  UNL1       -0.0003
@<TRIPOS>BOND
     1     1     2    2
     2     2     3   am
     3     3    24    1
     4    24    25    1
     5    25    26   ar
     6    26    27   ar
     7    27    28   ar
     8    28    29    1
     9    28    30   ar
    10    30    31   ar
    11     2     4   am
    12     4     6    1
    13     6     7   ar
    14     7     8   ar
    15     8     9   ar
    16     9    10    1
    17     9    11   ar
    18    11    12   ar
    19     4    13    1
    20    13    14    1
    21    14    15    1
    22    15    16    1
    23    16    19    1
    24    19    20    1
    25    20    21    1
    26    21    22    1
    27    22    23    1
    28    16    17    1
    29    17    18    1
    30    31    25   ar
    31    12     6   ar
    32    18    13    1
    33    23    19    1
    34     3     5    1
@<TRIPOS>MOLECULE
*****
 31 34 0 0 0
SMALL
GASTEIGER

@<TRIPOS>ATOM
      1 O         141.5039  137.3963  161.9139 O.2     1  UNL1       -0.2522
      2 C         141.3556  138.8842  161.7940 C.2     1  UNL1        0.3079
      3 N         141.3502  139.7391  163.0265 N.am    1  UNL1       -0.2844
      4 N         141.2128  139.5171  160.4416 N.am    1  UNL1       -0.2448
      5 H         141.2530  140.7156  162.9479 H       1  UNL1        0.1513
      6 C         141.0645  141.0049  160.3217 C.ar    1  UNL1        0.0552
      7 C         142.2785  141.8677  160.1435 C.ar    1  UNL1        0.0155
      8 C         142.1303  143.3555  160.0236 C.ar    1  UNL1        0.0080
      9 C         140.7680  143.9806  160.0819 C.ar    1  UNL1        0.0346
     10 BR        140.6198  145.4684  159.9621 Br      1  UNL1       -0.0490
     11 C         139.5540  143.1179  160.2601 C.ar    1  UNL1        0.0080
     12 C         139.7023  141.6300  160.3800 C.ar    1  UNL1        0.0155
     13 C         141.2181  138.6622  159.2091 C.3     1  UNL1        0.0840
     14 C         139.9494  138.4512  158.4371 C.3     1  UNL1        0.0376
     15 C         139.9548  137.5963  157.2047 C.3     1  UNL1        0.0738
     16 N         141.2288  136.9523  156.7441 N.3     1  UNL1       -0.2738
     17 C         142.4975  137.1633  157.5160 C.3     1  UNL1        0.0738
     18 C         142.4922  138.0182  158.7485 C.3     1  UNL1        0.0376
     19 C         141.2342  136.0974  155.5116 C.3     1  UNL1        0.0575
     20 C         141.8196  134.7212  155.3957 C.3     1  UNL1        0.0160
     21 C         141.6023  134.2418  153.9910 C.3     1  UNL1        0.0014
     22 C         140.8826  135.3218  153.2388 C.3     1  UNL1        0.0014
     23 C         140.6551  136.4686  154.1785 C.3     1  UNL1        0.0160
     24 C         141.4931  139.1061  164.3789 C.3     1  UNL1        0.1177
     25 C         140.2728  138.7928  165.1931 C.ar    1  UNL1       -0.0024
     26 C         139.4634  137.5669  164.8900 C.ar    1  UNL1       -0.0003
     27 C         138.2432  137.2536  165.7042 C.ar    1  UNL1        0.0294
     28 C         137.8324  138.1664  166.8214 C.ar    1  UNL1        0.1401
     29 F         136.6121  137.8531  167.6356 F       1  UNL1       -0.2042
     30 C         138.6418  139.3923  167.1245 C.ar    1  UNL1        0.0294
     31 C         139.8620  139.7056  166.3103 C.ar    1  UNL1       -0.0003
@<TRIPOS>BOND
     1     1     2    2
     2     2     3   am
     3     3    24    1
     4    24    25    1
     5    25    26   ar
     6    26    27   ar
     7    27    28   ar
     8    28    29    1
     9    28    30   ar
    10    30    31   ar
    11     2     4   am
    12     4     6    1
    13     6     7   ar
    14     7     8   ar
    15     8     9   ar
    16     9    10    1
    17     9    11   ar
    18    11    12   ar
    19     4    13    1
    20    13    14    1
    21    14    15    1
    22    15    16    1
    23    16    19    1
    24    19    20    1
    25    20    21    1
    26    21    22    1
    27    22    23    1
    28    16    17    1
    29    17    18    1
    30    31    25   ar
    31    12     6   ar
    32    18    13    1
    33    23    19    1
    34     3     5    1
@<TRIPOS>MOLECULE
*****
 31 34 0 0 0
SMALL
GASTEIGER

@<TRIPOS>ATOM
      1 O         141.3678  138.3184  163.7582 O.2     1  UNL1       -0.2522
      2 C         141.0180  139.7725  163.6428 C.2     1  UNL1        0.3079
      3 N         140.5848  140.5384  164.8576 N.am    1  UNL1       -0.2844
      4 N         141.1015  140.4606  162.3126 N.am    1  UNL1       -0.2448
      5 H         140.3552  141.4927  164.7819 H       1  UNL1        0.1513
      6 C         140.7517  141.9147  162.1972 C.ar    1  UNL1        0.0552
      7 C         139.3204  142.3308  162.0295 C.ar    1  UNL1        0.0155
      8 C         138.9706  143.7848  161.9140 C.ar    1  UNL1        0.0080
      9 C         140.0522  144.8228  161.9663 C.ar    1  UNL1        0.0346
     10 BR        139.7024  146.2769  161.8508 Br      1  UNL1       -0.0490
     11 C         141.4835  144.4067  162.1339 C.ar    1  UNL1        0.0080
     12 C         141.8332  142.9527  162.2494 C.ar    1  UNL1        0.0155
     13 C         141.5347  139.6947  161.0979 C.3     1  UNL1        0.0840
     14 C         142.9898  139.4099  160.8702 C.3     1  UNL1        0.0376
     15 C         143.4230  138.6440  159.6555 C.3     1  UNL1        0.0738
     16 N         142.4012  138.1628  158.6683 N.3     1  UNL1       -0.2738
     17 C         140.9462  138.4475  158.8959 C.3     1  UNL1        0.0738
     18 C         140.5129  139.2135  160.1107 C.3     1  UNL1        0.0376
     19 C         142.8344  137.3969  157.4536 C.3     1  UNL1        0.0575
     20 C         142.9052  135.9035  157.3317 C.3     1  UNL1        0.0160
     21 C         143.3875  135.5735  155.9502 C.3     1  UNL1        0.0014
     22 C         143.6148  136.8629  155.2182 C.3     1  UNL1        0.0014
     23 C         143.2730  137.9898  156.1474 C.3     1  UNL1        0.0160
     24 C         140.5013  139.8502  166.1878 C.3     1  UNL1        0.1177
     25 C         140.2752  140.6530  167.4347 C.ar    1  UNL1       -0.0024
     26 C         140.7820  142.0620  167.5217 C.ar    1  UNL1       -0.0003
     27 C         140.5559  142.8646  168.7685 C.ar    1  UNL1        0.0294
     28 C         139.8229  142.2582  169.9283 C.ar    1  UNL1        0.1401
     29 F         139.5967  143.0610  171.1751 F       1  UNL1       -0.2042
     30 C         139.3160  140.8492  169.8412 C.ar    1  UNL1        0.0294
     31 C         139.5422  140.0465  168.5944 C.ar    1  UNL1       -0.0003
@<TRIPOS>BOND
     1     1     2    2
     2     2     3   am
     3     3    24    1
     4    24    25    1
     5    25    26   ar
     6    26    27   ar
     7    27    28   ar
     8    28    29    1
     9    28    30   ar
    10    30    31   ar
    11     2     4   am
    12     4     6    1
    13     6     7   ar
    14     7     8   ar
    15     8     9   ar
    16     9    10    1
    17     9    11   ar
    18    11    12   ar
    19     4    13    1
    20    13    14    1
    21    14    15    1
    22    15    16    1
    23    16    19    1
    24    19    20    1
    25    20    21    1
    26    21    22    1
    27    22    23    1
    28    16    17    1
    29    17    18    1
    30    31    25   ar
    31    12     6   ar
    32    18    13    1
    33    23    19    1
    34     3     5    1
@<TRIPOS>MOLECULE
*****
 31 34 0 0 0
SMALL
GASTEIGER

@<TRIPOS>ATOM
      1 O         143.7461  138.9787  158.8026 O.2     1  UNL1       -0.2522
      2 C         142.9480  140.0727  159.4477 C.2     1  UNL1        0.3079
      3 N         141.9340  139.7399  160.5018 N.am    1  UNL1       -0.2844
      4 N         143.1638  141.4996  159.0386 N.am    1  UNL1       -0.2448
      5 H         141.4102  140.4579  160.9252 H       1  UNL1        0.1513
      6 C         142.3657  142.5937  159.6836 C.ar    1  UNL1        0.0552
      7 C         141.0693  143.0364  159.0727 C.ar    1  UNL1        0.0155
      8 C         140.2712  144.1305  159.7177 C.ar    1  UNL1        0.0080
      9 C         140.7696  144.7819  160.9736 C.ar    1  UNL1        0.0346
     10 BR        139.9715  145.8759  161.6186 Br      1  UNL1       -0.0490
     11 C         142.0660  144.3392  161.5845 C.ar    1  UNL1        0.0080
     12 C         142.8641  143.2451  160.9395 C.ar    1  UNL1        0.0155
     13 C         144.1777  141.8324  157.9845 C.3     1  UNL1        0.0840
     14 C         145.4840  142.4599  158.3718 C.3     1  UNL1        0.0376
     15 C         146.4979  142.7927  157.3176 C.3     1  UNL1        0.0738
     16 N         146.2056  142.4980  155.8762 N.3     1  UNL1       -0.2738
     17 C         144.8994  141.8705  155.4889 C.3     1  UNL1        0.0738
     18 C         143.8854  141.5377  156.5430 C.3     1  UNL1        0.0376
     19 C         147.2195  142.8308  154.8221 C.3     1  UNL1        0.0575
     20 C         148.3319  141.9391  154.3559 C.3     1  UNL1        0.0160
     21 C         149.0990  142.6710  153.2947 C.3     1  UNL1        0.0014
     22 C         148.4606  144.0151  153.1051 C.3     1  UNL1        0.0014
     23 C         147.2991  144.1139  154.0490 C.3     1  UNL1        0.0160
     24 C         141.7182  138.3130  160.9109 C.3     1  UNL1        0.1177
     25 C         140.9163  137.9979  162.1388 C.ar    1  UNL1       -0.0024
     26 C         139.4176  138.0280  162.0840 C.ar    1  UNL1       -0.0003
     27 C         138.6157  137.7129  163.3118 C.ar    1  UNL1        0.0294
     28 C         139.3125  137.3677  164.5945 C.ar    1  UNL1        0.1401
     29 F         138.5106  137.0526  165.8224 F       1  UNL1       -0.2042
     30 C         140.8112  137.3376  164.6494 C.ar    1  UNL1        0.0294
     31 C         141.6131  137.6527  163.4215 C.ar    1  UNL1       -0.0003
@<TRIPOS>BOND
     1     1     2    2
     2     2     3   am
     3     3    24    1
     4    24    25    1
     5    25    26   ar
     6    26    27   ar
     7    27    28   ar
     8    28    29    1
     9    28    30   ar
    10    30    31   ar
    11     2     4   am
    12     4     6    1
    13     6     7   ar
    14     7     8   ar
    15     8     9   ar
    16     9    10    1
    17     9    11   ar
    18    11    12   ar
    19     4    13    1
    20    13    14    1
    21    14    15    1
    22    15    16    1
    23    16    19    1
    24    19    20    1
    25    20    21    1
    26    21    22    1
    27    22    23    1
    28    16    17    1
    29    17    18    1
    30    31    25   ar
    31    12     6   ar
    32    18    13    1
    33    23    19    1
    34     3     5    1
@<TRIPOS>MOLECULE
*****
 31 34 0 0 0
SMALL
GASTEIGER

@<TRIPOS>ATOM
      1 O         141.9562  141.1475  158.1617 O.2     1  UNL1       -0.2522
      2 C         141.4317  140.6382  159.4715 C.2     1  UNL1        0.3079
      3 N         141.3009  141.5695  160.6401 N.am    1  UNL1       -0.2844
      4 N         141.0381  139.1977  159.6126 N.am    1  UNL1       -0.2448
      5 H         140.9566  141.2352  161.4998 H       1  UNL1        0.1513
      6 C         140.5135  138.6884  160.9224 C.ar    1  UNL1        0.0552
      7 C         139.0443  138.7522  161.2177 C.ar    1  UNL1        0.0155
      8 C         138.5198  138.2429  162.5275 C.ar    1  UNL1        0.0080
      9 C         139.4645  137.6698  163.5419 C.ar    1  UNL1        0.0346
     10 BR        138.9400  137.1605  164.8517 Br      1  UNL1       -0.0490
     11 C         140.9337  137.6060  163.2465 C.ar    1  UNL1        0.0080
     12 C         141.4582  138.1153  161.9368 C.ar    1  UNL1        0.0155
     13 C         141.1689  138.2665  158.4440 C.3     1  UNL1        0.0840
     14 C         142.4818  137.5985  158.1605 C.3     1  UNL1        0.0376
     15 C         142.6126  136.6674  156.9919 C.3     1  UNL1        0.0738
     16 N         141.4307  136.4041  156.1067 N.3     1  UNL1       -0.2738
     17 C         140.1179  137.0720  156.3900 C.3     1  UNL1        0.0738
     18 C         139.9870  138.0033  157.5587 C.3     1  UNL1        0.0376
     19 C         141.5615  135.4729  154.9380 C.3     1  UNL1        0.0575
     20 C         141.7647  135.8764  153.5077 C.3     1  UNL1        0.0160
     21 C         141.8409  134.6275  152.6801 C.3     1  UNL1        0.0014
     22 C         141.6848  133.4523  153.5992 C.3     1  UNL1        0.0014
     23 C         141.5122  133.9747  154.9946 C.3     1  UNL1        0.0160
     24 C         141.6945  143.0100  160.4990 C.3     1  UNL1        0.1177
     25 C         142.3434  143.7261  161.6463 C.ar    1  UNL1       -0.0024
     26 C         143.7863  143.4733  161.9686 C.ar    1  UNL1       -0.0003
     27 C         144.4351  144.1894  163.1159 C.ar    1  UNL1        0.0294
     28 C         143.6409  145.1582  163.9409 C.ar    1  UNL1        0.1401
     29 F         144.2898  145.8743  165.0882 F       1  UNL1       -0.2042
     30 C         142.1980  145.4110  163.6185 C.ar    1  UNL1        0.0294
     31 C         141.5492  144.6950  162.4713 C.ar    1  UNL1       -0.0003
@<TRIPOS>BOND
     1     1     2    2
     2     2     3   am
     3     3    24    1
     4    24    25    1
     5    25    26   ar
     6    26    27   ar
     7    27    28   ar
     8    28    29    1
     9    28    30   ar
    10    30    31   ar
    11     2     4   am
    12     4     6    1
    13     6     7   ar
    14     7     8   ar
    15     8     9   ar
    16     9    10    1
    17     9    11   ar
    18    11    12   ar
    19     4    13    1
    20    13    14    1
    21    14    15    1
    22    15    16    1
    23    16    19    1
    24    19    20    1
    25    20    21    1
    26    21    22    1
    27    22    23    1
    28    16    17    1
    29    17    18    1
    30    31    25   ar
    31    12     6   ar
    32    18    13    1
    33    23    19    1
    34     3     5    1
@<TRIPOS>MOLECULE
*****
 31 34 0 0 0
SMALL
GASTEIGER

@<TRIPOS>ATOM
      1 O         138.2753  142.3821  159.0230 O.2     1  UNL1       -0.2522
      2 C         139.2138  142.7351  160.1386 C.2     1  UNL1        0.3079
      3 N         139.0960  142.0440  161.4648 N.am    1  UNL1       -0.2844
      4 N         140.2702  143.7790  159.9282 N.am    1  UNL1       -0.2448
      5 H         139.7119  142.2757  162.1971 H       1  UNL1        0.1513
      6 C         141.2087  144.1319  161.0438 C.ar    1  UNL1        0.0552
      7 C         140.7674  145.0722  162.1259 C.ar    1  UNL1        0.0155
      8 C         141.7059  145.4251  163.2416 C.ar    1  UNL1        0.0080
      9 C         143.0857  144.8378  163.2751 C.ar    1  UNL1        0.0346
     10 BR        144.0242  145.1907  164.3907 Br      1  UNL1       -0.0490
     11 C         143.5270  143.8975  162.1929 C.ar    1  UNL1        0.0080
     12 C         142.5885  143.5445  161.0773 C.ar    1  UNL1        0.0155
     13 C         140.3880  144.4699  158.6020 C.3     1  UNL1        0.0840
     14 C         139.9199  145.8870  158.4504 C.3     1  UNL1        0.0376
     15 C         140.0377  146.5779  157.1243 C.3     1  UNL1        0.0738
     16 N         140.6237  145.8519  155.9498 N.3     1  UNL1       -0.2738
     17 C         141.0919  144.4350  156.1013 C.3     1  UNL1        0.0738
     18 C         140.9741  143.7439  157.4275 C.3     1  UNL1        0.0376
     19 C         140.7416  146.5429  154.6236 C.3     1  UNL1        0.0575
     20 C         140.1867  147.8937  154.2808 C.3     1  UNL1        0.0160
     21 C         140.5372  148.1900  152.8527 C.3     1  UNL1        0.0014
     22 C         141.3087  147.0223  152.3129 C.3     1  UNL1        0.0014
     23 C         141.4350  146.0044  153.4074 C.3     1  UNL1        0.0160
     24 C         138.0396  141.0001  161.6753 C.3     1  UNL1        0.1177
     25 C         138.2245  139.9475  162.7279 C.ar    1  UNL1       -0.0024
     26 C         138.5256  138.5331  162.3294 C.ar    1  UNL1       -0.0003
     27 C         138.7105  137.4806  163.3820 C.ar    1  UNL1        0.0294
     28 C         138.5943  137.8425  164.8331 C.ar    1  UNL1        0.1401
     29 F         138.7792  136.7899  165.8857 F       1  UNL1       -0.2042
     30 C         138.2932  139.2569  165.2315 C.ar    1  UNL1        0.0294
     31 C         138.1083  140.3094  164.1790 C.ar    1  UNL1       -0.0003
@<TRIPOS>BOND
     1     1     2    2
     2     2     3   am
     3     3    24    1
     4    24    25    1
     5    25    26   ar
     6    26    27   ar
     7    27    28   ar
     8    28    29    1
     9    28    30   ar
    10    30    31   ar
    11     2     4   am
    12     4     6    1
    13     6     7   ar
    14     7     8   ar
    15     8     9   ar
    16     9    10    1
    17     9    11   ar
    18    11    12   ar
    19     4    13    1
    20    13    14    1
    21    14    15    1
    22    15    16    1
    23    16    19    1
    24    19    20    1
    25    20    21    1
    26    21    22    1
    27    22    23    1
    28    16    17    1
    29    17    18    1
    30    31    25   ar
    31    12     6   ar
    32    18    13    1
    33    23    19    1
    34     3     5    1
@<TRIPOS>MOLECULE
*****
 31 34 0 0 0
SMALL
GASTEIGER

@<TRIPOS>ATOM
      1 O         142.2883  141.5668  158.6734 O.2     1  UNL1       -0.2522
      2 C         142.2721  140.3553  157.7891 C.2     1  UNL1        0.3079
      3 N         142.8836  140.4173  156.4208 N.am    1  UNL1       -0.2844
      4 N         141.6444  139.0819  158.2731 N.am    1  UNL1       -0.2448
      5 H         142.8730  139.6222  155.8403 H       1  UNL1        0.1513
      6 C         141.6282  137.8704  157.3888 C.ar    1  UNL1        0.0552
      7 C         140.4937  137.6559  156.4312 C.ar    1  UNL1        0.0155
      8 C         140.4775  136.4444  155.5469 C.ar    1  UNL1        0.0080
      9 C         141.5957  135.4474  155.6201 C.ar    1  UNL1        0.0346
     10 BR        141.5795  134.2359  154.7358 Br      1  UNL1       -0.0490
     11 C         142.7302  135.6619  156.5777 C.ar    1  UNL1        0.0080
     12 C         142.7464  136.8734  157.4620 C.ar    1  UNL1        0.0155
     13 C         141.0329  139.0199  159.6413 C.3     1  UNL1        0.0840
     14 C         141.9095  138.8596  160.8480 C.3     1  UNL1        0.0376
     15 C         141.2980  138.7977  162.2163 C.3     1  UNL1        0.0738
     16 N         139.8100  138.8960  162.3780 N.3     1  UNL1       -0.2738
     17 C         138.9334  139.0563  161.1714 C.3     1  UNL1        0.0738
     18 C         139.5449  139.1183  159.8030 C.3     1  UNL1        0.0376
     19 C         139.1985  138.8341  163.7462 C.3     1  UNL1        0.0575
     20 C         139.0988  137.6139  164.6130 C.3     1  UNL1        0.0160
     21 C         138.4180  138.0072  165.8906 C.3     1  UNL1        0.0014
     22 C         138.0969  139.4704  165.8133 C.3     1  UNL1        0.0014
     23 C         138.5793  139.9815  164.4881 C.3     1  UNL1        0.0160
     24 C         143.5113  141.6908  155.9368 C.3     1  UNL1        0.1177
     25 C         145.0047  141.8083  155.8583 C.ar    1  UNL1       -0.0024
     26 C         145.7698  142.4189  156.9948 C.ar    1  UNL1       -0.0003
     27 C         147.2631  142.5364  156.9162 C.ar    1  UNL1        0.0294
     28 C         147.9913  142.0432  155.7011 C.ar    1  UNL1        0.1401
     29 F         149.4847  142.1607  155.6225 F       1  UNL1       -0.2042
     30 C         147.2262  141.4326  154.5645 C.ar    1  UNL1        0.0294
     31 C         145.7329  141.3151  154.6431 C.ar    1  UNL1       -0.0003
@<TRIPOS>BOND
     1     1     2    2
     2     2     3   am
     3     3    24    1
     4    24    25    1
     5    25    26   ar
     6    26    27   ar
     7    27    28   ar
     8    28    29    1
     9    28    30   ar
    10    30    31   ar
    11     2     4   am
    12     4     6    1
    13     6     7   ar
    14     7     8   ar
    15     8     9   ar
    16     9    10    1
    17     9    11   ar
    18    11    12   ar
    19     4    13    1
    20    13    14    1
    21    14    15    1
    22    15    16    1
    23    16    19    1
    24    19    20    1
    25    20    21    1
    26    21    22    1
    27    22    23    1
    28    16    17    1
    29    17    18    1
    30    31    25   ar
    31    12     6   ar
    32    18    13    1
    33    23    19    1
    34     3     5    1
@<TRIPOS>MOLECULE
*****
 31 34 0 0 0
SMALL
GASTEIGER

@<TRIPOS>ATOM
      1 O         140.3163  137.5608  162.7259 O.2     1  UNL1       -0.2522
      2 C         140.2023  139.0565  162.7221 C.2     1  UNL1        0.3079
      3 N         139.7871  139.7802  163.9687 N.am    1  UNL1       -0.2844
      4 N         140.5034  139.8284  161.4717 N.am    1  UNL1       -0.2448
      5 H         139.7123  140.7618  163.9662 H       1  UNL1        0.1513
      6 C         140.3894  141.3240  161.4679 C.ar    1  UNL1        0.0552
      7 C         141.6050  142.1695  161.7074 C.ar    1  UNL1        0.0155
      8 C         141.4910  143.6651  161.7036 C.ar    1  UNL1        0.0080
      9 C         140.1614  144.3154  161.4602 C.ar    1  UNL1        0.0346
     10 BR        140.0474  145.8110  161.4564 Br      1  UNL1       -0.0490
     11 C         138.9458  143.4699  161.2207 C.ar    1  UNL1        0.0080
     12 C         139.0598  141.9743  161.2245 C.ar    1  UNL1        0.0155
     13 C         140.9185  139.1047  160.2252 C.3     1  UNL1        0.0840
     14 C         139.9109  138.8242  159.1499 C.3     1  UNL1        0.0376
     15 C         140.3260  138.1005  157.9034 C.3     1  UNL1        0.0738
     16 N         141.7487  137.6572  157.7321 N.3     1  UNL1       -0.2738
     17 C         142.7563  137.9376  158.8073 C.3     1  UNL1        0.0738
     18 C         142.3412  138.6614  160.0539 C.3     1  UNL1        0.0376
     19 C         142.1638  136.9334  156.4856 C.3     1  UNL1        0.0575
     20 C         141.7100  137.2479  155.0909 C.3     1  UNL1        0.0160
     21 C         142.3714  136.2769  154.1582 C.3     1  UNL1        0.0014
     22 C         143.2340  135.3624  154.9765 C.3     1  UNL1        0.0014
     23 C         143.1058  135.7681  156.4148 C.3     1  UNL1        0.0160
     24 C         139.4860  139.0083  165.2190 C.3     1  UNL1        0.1177
     25 C         140.1190  139.4089  166.5186 C.ar    1  UNL1       -0.0024
     26 C         139.2579  139.7580  167.6961 C.ar    1  UNL1       -0.0003
     27 C         139.8910  140.1586  168.9956 C.ar    1  UNL1        0.0294
     28 C         141.3851  140.2101  169.1176 C.ar    1  UNL1        0.1401
     29 F         142.0181  140.6108  170.4172 F       1  UNL1       -0.2042
     30 C         142.2462  139.8610  167.9401 C.ar    1  UNL1        0.0294
     31 C         141.6132  139.4604  166.6406 C.ar    1  UNL1       -0.0003
@<TRIPOS>BOND
     1     1     2    2
     2     2     3   am
     3     3    24    1
     4    24    25    1
     5    25    26   ar
     6    26    27   ar
     7    27    28   ar
     8    28    29    1
     9    28    30   ar
    10    30    31   ar
    11     2     4   am
    12     4     6    1
    13     6     7   ar
    14     7     8   ar
    15     8     9   ar
    16     9    10    1
    17     9    11   ar
    18    11    12   ar
    19     4    13    1
    20    13    14    1
    21    14    15    1
    22    15    16    1
    23    16    19    1
    24    19    20    1
    25    20    21    1
    26    21    22    1
    27    22    23    1
    28    16    17    1
    29    17    18    1
    30    31    25   ar
    31    12     6   ar
    32    18    13    1
    33    23    19    1
    34     3     5    1
@<TRIPOS>MOLECULE
*****
 31 34 0 0 0
SMALL
GASTEIGER

@<TRIPOS>ATOM
      1 O         140.6244  137.2516  162.3264 O.2     1  UNL1       -0.2522
      2 C         140.5153  138.7475  162.3468 C.2     1  UNL1        0.3079
      3 N         140.2392  139.4618  163.6367 N.am    1  UNL1       -0.2844
      4 N         140.6823  139.5291  161.0775 N.am    1  UNL1       -0.2448
      5 H         140.1676  140.4436  163.6501 H       1  UNL1        0.1513
      6 C         140.5732  141.0250  161.0980 C.ar    1  UNL1        0.0552
      7 C         139.2376  141.6822  160.9133 C.ar    1  UNL1        0.0155
      8 C         139.1285  143.1781  160.9337 C.ar    1  UNL1        0.0080
      9 C         140.3551  144.0168  161.1390 C.ar    1  UNL1        0.0346
     10 BR        140.2460  145.5127  161.1594 Br      1  UNL1       -0.0490
     11 C         141.6907  143.3596  161.3237 C.ar    1  UNL1        0.0080
     12 C         141.7998  141.8637  161.3032 C.ar    1  UNL1        0.0155
     13 C         140.9584  138.8149  159.7878 C.3     1  UNL1        0.0840
     14 C         142.3492  138.3513  159.4699 C.3     1  UNL1        0.0376
     15 C         142.6253  137.6371  158.1801 C.3     1  UNL1        0.0738
     16 N         141.5107  137.3863  157.2082 N.3     1  UNL1       -0.2738
     17 C         140.1199  137.8497  157.5260 C.3     1  UNL1        0.0738
     18 C         139.8438  138.5640  158.8158 C.3     1  UNL1        0.0376
     19 C         141.7867  136.6720  155.9184 C.3     1  UNL1        0.0575
     20 C         142.0869  135.2101  155.7669 C.3     1  UNL1        0.0160
     21 C         142.2968  134.9288  154.3084 C.3     1  UNL1        0.0014
     22 C         142.1264  136.2168  153.5587 C.3     1  UNL1        0.0014
     23 C         141.8112  137.2941  154.5537 C.3     1  UNL1        0.0160
     24 C         140.0722  138.6802  164.9060 C.3     1  UNL1        0.1177
     25 C         140.4232  139.3055  166.2235 C.ar    1  UNL1       -0.0024
     26 C         139.3360  139.7283  167.1664 C.ar    1  UNL1       -0.0003
     27 C         139.6870  140.3536  168.4839 C.ar    1  UNL1        0.0294
     28 C         141.1253  140.5559  168.8585 C.ar    1  UNL1        0.1401
     29 F         141.4763  141.1812  170.1761 F       1  UNL1       -0.2042
     30 C         142.2125  140.1331  167.9157 C.ar    1  UNL1        0.0294
     31 C         141.8615  139.5078  166.5982 C.ar    1  UNL1       -0.0003
@<TRIPOS>BOND
     1     1     2    2
     2     2     3   am
     3     3    24    1
     4    24    25    1
     5    25    26   ar
     6    26    27   ar
     7    27    28   ar
     8    28    29    1
     9    28    30   ar
    10    30    31   ar
    11     2     4   am
    12     4     6    1
    13     6     7   ar
    14     7     8   ar
    15     8     9   ar
    16     9    10    1
    17     9    11   ar
    18    11    12   ar
    19     4    13    1
    20    13    14    1
    21    14    15    1
    22    15    16    1
    23    16    19    1
    24    19    20    1
    25    20    21    1
    26    21    22    1
    27    22    23    1
    28    16    17    1
    29    17    18    1
    30    31    25   ar
    31    12     6   ar
    32    18    13    1
    33    23    19    1
    34     3     5    1
