@<TRIPOS>MOLECULE
*****
 28 32 0 0 0
SMALL
GASTEIGER

@<TRIPOS>ATOM
      1 C         139.9623  139.0855  162.0243 C.ar    1  UNL1        0.0834
      2 C         141.2700  139.8008  161.8566 C.ar    1  UNL1        0.0273
      3 C         141.8937  139.9145  160.4972 C.ar    1  UNL1        0.0528
      4 S         143.1656  140.5556  160.0268 S.2     1  UNL1       -0.0514
      5 C         143.2676  140.3503  158.5445 C.ar    1  UNL1        0.1631
      6 N         142.0588  139.5822  158.0987 N.ar    1  UNL1       -0.2225
      7 C         141.2096  139.3129  159.3055 C.ar    1  UNL1        0.1084
      8 C         139.9019  138.5976  159.4732 C.ar    1  UNL1        0.1184
      9 N         139.2782  138.4839  160.8326 N.ar    1  UNL1       -0.2422
     10 F         137.4674  138.6306  167.4620 F       1  UNL1       -0.1832
     11 C         138.0911  138.7443  166.1026 C.ar    1  UNL1        0.2223
     12 C         138.7114  137.5398  165.4590 C.ar    1  UNL1        0.0497
     13 C         139.3351  137.6535  164.0995 C.ar    1  UNL1        0.0070
     14 C         139.3385  138.9717  163.3838 C.ar    1  UNL1        0.0370
     15 C         138.7182  140.1763  164.0275 C.ar    1  UNL1        0.1027
     16 N         138.0945  140.0626  165.3869 N.ar    1  UNL1       -0.2164
     17 N         144.3828  140.8289  157.6628 N.pl3   1  UNL1       -0.2881
     18 C         144.6886  140.1090  156.3829 C.3     1  UNL1        0.0940
     19 C         145.8037  140.5877  155.5011 C.3     1  UNL1        0.0375
     20 C         146.6130  141.7862  155.8994 C.3     1  UNL1        0.0609
     21 C         146.3072  142.5060  157.1793 C.3     1  UNL1        0.0375
     22 C         145.1920  142.0274  158.0610 C.3     1  UNL1        0.0940
     23 N         147.7281  142.2648  155.0176 N.3     1  UNL1       -0.2738
     24 C         147.4641  143.3111  153.9758 C.3     1  UNL1        0.0720
     25 C         148.5792  143.7898  153.0941 C.3     1  UNL1        0.0174
     26 C         149.9583  143.2221  153.2542 C.3     1  UNL1        0.0029
     27 C         150.2224  142.1758  154.2961 C.3     1  UNL1        0.0174
     28 C         149.1072  141.6972  155.1778 C.3     1  UNL1        0.0720
@<TRIPOS>BOND
     1    10    11    1
     2    11    12   ar
     3    12    13   ar
     4    13    14   ar
     5    14     1    1
     6     1     2   ar
     7     2     3   ar
     8     3     4   ar
     9     4     5   ar
    10     5    17    1
    11    17    18    1
    12    18    19    1
    13    19    20    1
    14    20    23    1
    15    23    24    1
    16    24    25    1
    17    25    26    1
    18    26    27    1
    19    27    28    1
    20    20    21    1
    21    21    22    1
    22     5     6   ar
    23     6     7   ar
    24     7     8   ar
    25     8     9   ar
    26    14    15   ar
    27    15    16   ar
    28    16    11   ar
    29     9     1   ar
    30     7     3   ar
    31    22    17    1
    32    28    23    1
@<TRIPOS>MOLECULE
*****
 28 32 0 0 0
SMALL
GASTEIGER

@<TRIPOS>ATOM
      1 C         143.6035  141.5738  159.6065 C.ar    1  UNL1        0.0834
      2 C         143.0456  140.2010  159.8390 C.ar    1  UNL1        0.0273
      3 C         143.0766  139.1825  158.7383 C.ar    1  UNL1        0.0528
      4 S         142.6053  137.7599  158.6735 S.2     1  UNL1       -0.0514
      5 C         142.9028  137.2351  157.3002 C.ar    1  UNL1        0.1631
      6 N         143.5579  138.3333  156.5162 N.ar    1  UNL1       -0.2225
      7 C         143.6653  139.5369  157.4049 C.ar    1  UNL1        0.1084
      8 C         144.2232  140.9097  157.1724 C.ar    1  UNL1        0.1184
      9 N         144.1922  141.9281  158.2731 N.ar    1  UNL1       -0.2422
     10 F         143.4798  145.6479  164.0095 F       1  UNL1       -0.1832
     11 C         143.5107  144.6294  162.9088 C.ar    1  UNL1        0.2223
     12 C         144.5717  143.5691  162.8977 C.ar    1  UNL1        0.0497
     13 C         144.6026  142.5506  161.7969 C.ar    1  UNL1        0.0070
     14 C         143.5726  142.5923  160.7073 C.ar    1  UNL1        0.0370
     15 C         142.5116  143.6526  160.7184 C.ar    1  UNL1        0.1027
     16 N         142.4806  144.6711  161.8191 N.ar    1  UNL1       -0.2164
     17 N         142.5986  135.8544  156.7989 N.pl3   1  UNL1       -0.2881
     18 C         143.3231  134.6722  157.3711 C.3     1  UNL1        0.0940
     19 C         143.0189  133.2915  156.8699 C.3     1  UNL1        0.0375
     20 C         141.9902  133.0931  155.7964 C.3     1  UNL1        0.0609
     21 C         141.2657  134.2753  155.2242 C.3     1  UNL1        0.0375
     22 C         141.5699  135.6560  155.7255 C.3     1  UNL1        0.0940
     23 N         141.6860  131.7125  155.2951 N.3     1  UNL1       -0.2738
     24 C         142.4458  130.5356  155.8312 C.3     1  UNL1        0.0720
     25 C         142.1416  129.1549  155.3300 C.3     1  UNL1        0.0174
     26 C         141.0775  128.9512  154.2926 C.3     1  UNL1        0.0029
     27 C         140.3177  130.1281  153.7565 C.3     1  UNL1        0.0174
     28 C         140.6219  131.5087  154.2578 C.3     1  UNL1        0.0720
@<TRIPOS>BOND
     1    10    11    1
     2    11    12   ar
     3    12    13   ar
     4    13    14   ar
     5    14     1    1
     6     1     2   ar
     7     2     3   ar
     8     3     4   ar
     9     4     5   ar
    10     5    17    1
    11    17    18    1
    12    18    19    1
    13    19    20    1
    14    20    23    1
    15    23    24    1
    16    24    25    1
    17    25    26    1
    18    26    27    1
    19    27    28    1
    20    20    21    1
    21    21    22    1
    22     5     6   ar
    23     6     7   ar
    24     7     8   ar
    25     8     9   ar
    26    14    15   ar
    27    15    16   ar
    28    16    11   ar
    29     9     1   ar
    30     7     3   ar
    31    22    17    1
    32    28    23    1
@<TRIPOS>MOLECULE
*****
 28 32 0 0 0
SMALL
GASTEIGER

@<TRIPOS>ATOM
      1 C         139.4788  141.3136  165.9124 C.ar    1  UNL1        0.0834
      2 C         140.1791  142.3392  165.0712 C.ar    1  UNL1        0.0273
      3 C         139.8284  142.4853  163.6202 C.ar    1  UNL1        0.0528
      4 S         140.3452  143.4005  162.5499 S.2     1  UNL1       -0.0514
      5 C         139.6136  143.0867  161.2786 C.ar    1  UNL1        0.1631
      6 N         138.6446  141.9777  161.5632 N.ar    1  UNL1       -0.2225
      7 C         138.7774  141.6060  163.0103 C.ar    1  UNL1        0.1084
      8 C         138.0770  140.5804  163.8515 C.ar    1  UNL1        0.1184
      9 N         138.4277  140.4342  165.3026 N.ar    1  UNL1       -0.2422
     10 F         140.8815  140.7286  171.7168 F       1  UNL1       -0.1832
     11 C         140.5308  140.8748  170.2657 C.ar    1  UNL1        0.2223
     12 C         140.9342  142.1108  169.5175 C.ar    1  UNL1        0.0497
     13 C         140.5835  142.2570  168.0664 C.ar    1  UNL1        0.0070
     14 C         139.8295  141.1673  167.3635 C.ar    1  UNL1        0.0370
     15 C         139.4261  139.9314  168.1117 C.ar    1  UNL1        0.1027
     16 N         139.7767  139.7852  169.5628 N.ar    1  UNL1       -0.2164
     17 N         139.8155  143.7633  159.9552 N.pl3   1  UNL1       -0.2881
     18 C         140.5334  145.0785  159.8870 C.3     1  UNL1        0.0940
     19 C         140.7353  145.7550  158.5635 C.3     1  UNL1        0.0375
     20 C         140.2192  145.1164  157.3083 C.3     1  UNL1        0.0609
     21 C         139.5013  143.8011  157.3765 C.3     1  UNL1        0.0375
     22 C         139.2994  143.1246  158.6999 C.3     1  UNL1        0.0940
     23 N         140.4211  145.7929  155.9848 N.3     1  UNL1       -0.2738
     24 C         139.7018  147.0732  155.6795 C.3     1  UNL1        0.0720
     25 C         139.9036  147.7498  154.3561 C.3     1  UNL1        0.0174
     26 C         140.8249  147.1460  153.3379 C.3     1  UNL1        0.0029
     27 C         141.5442  145.8656  153.6432 C.3     1  UNL1        0.0174
     28 C         141.3423  145.1891  154.9666 C.3     1  UNL1        0.0720
@<TRIPOS>BOND
     1    10    11    1
     2    11    12   ar
     3    12    13   ar
     4    13    14   ar
     5    14     1    1
     6     1     2   ar
     7     2     3   ar
     8     3     4   ar
     9     4     5   ar
    10     5    17    1
    11    17    18    1
    12    18    19    1
    13    19    20    1
    14    20    23    1
    15    23    24    1
    16    24    25    1
    17    25    26    1
    18    26    27    1
    19    27    28    1
    20    20    21    1
    21    21    22    1
    22     5     6   ar
    23     6     7   ar
    24     7     8   ar
    25     8     9   ar
    26    14    15   ar
    27    15    16   ar
    28    16    11   ar
    29     9     1   ar
    30     7     3   ar
    31    22    17    1
    32    28    23    1
@<TRIPOS>MOLECULE
*****
 28 32 0 0 0
SMALL
GASTEIGER

@<TRIPOS>ATOM
      1 C         139.9319  145.3974  157.2470 C.ar    1  UNL1        0.0834
      2 C         140.3642  145.8450  158.6118 C.ar    1  UNL1        0.0273
      3 C         140.3850  144.8680  159.7498 C.ar    1  UNL1        0.0528
      4 S         140.7610  145.0175  161.1942 S.2     1  UNL1       -0.0514
      5 C         140.5819  143.6854  161.8601 C.ar    1  UNL1        0.1631
      6 N         140.0952  142.7126  160.8272 N.ar    1  UNL1       -0.2225
      7 C         139.9736  143.4435  159.5229 C.ar    1  UNL1        0.1084
      8 C         139.5413  142.9959  158.1581 C.ar    1  UNL1        0.1184
      9 N         139.5205  143.9729  157.0201 N.ar    1  UNL1       -0.2422
     10 F         139.8487  149.3052  152.6947 F       1  UNL1       -0.1832
     11 C         139.8695  148.3283  153.8328 C.ar    1  UNL1        0.2223
     12 C         139.0505  148.5909  155.0617 C.ar    1  UNL1        0.0497
     13 C         139.0713  147.6139  156.1998 C.ar    1  UNL1        0.0070
     14 C         139.9111  146.3744  156.1089 C.ar    1  UNL1        0.0370
     15 C         140.7301  146.1118  154.8800 C.ar    1  UNL1        0.1027
     16 N         140.7093  147.0887  153.7419 N.ar    1  UNL1       -0.2164
     17 N         140.8435  143.3797  163.3051 N.pl3   1  UNL1       -0.2881
     18 C         139.7275  143.4651  164.3037 C.3     1  UNL1        0.0940
     19 C         139.9891  143.1594  165.7488 C.3     1  UNL1        0.0375
     20 C         141.3667  142.7684  166.1952 C.3     1  UNL1        0.0609
     21 C         142.4826  142.6830  165.1966 C.3     1  UNL1        0.0375
     22 C         142.2210  142.9886  163.7515 C.3     1  UNL1        0.0940
     23 N         141.6283  142.4627  167.6402 N.3     1  UNL1       -0.2738
     24 C         143.0196  142.1403  168.0987 C.3     1  UNL1        0.0720
     25 C         143.2812  141.8346  169.5437 C.3     1  UNL1        0.0174
     26 C         142.1515  141.8514  170.5303 C.3     1  UNL1        0.0029
     27 C         140.7602  142.1738  170.0719 C.3     1  UNL1        0.0174
     28 C         140.4986  142.4795  168.6268 C.3     1  UNL1        0.0720
@<TRIPOS>BOND
     1    10    11    1
     2    11    12   ar
     3    12    13   ar
     4    13    14   ar
     5    14     1    1
     6     1     2   ar
     7     2     3   ar
     8     3     4   ar
     9     4     5   ar
    10     5    17    1
    11    17    18    1
    12    18    19    1
    13    19    20    1
    14    20    23    1
    15    23    24    1
    16    24    25    1
    17    25    26    1
    18    26    27    1
    19    27    28    1
    20    20    21    1
    21    21    22    1
    22     5     6   ar
    23     6     7   ar
    24     7     8   ar
    25     8     9   ar
    26    14    15   ar
    27    15    16   ar
    28    16    11   ar
    29     9     1   ar
    30     7     3   ar
    31    22    17    1
    32    28    23    1
@<TRIPOS>MOLECULE
*****
 28 32 0 0 0
SMALL
GASTEIGER

@<TRIPOS>ATOM
      1 C         141.1370  140.2824  166.7126 C.ar    1  UNL1        0.0834
      2 C         140.5175  140.5111  165.3658 C.ar    1  UNL1        0.0273
      3 C         141.0086  139.7435  164.1743 C.ar    1  UNL1        0.0528
      4 S         140.5949  139.7554  162.7325 S.2     1  UNL1       -0.0514
      5 C         141.4498  138.7665  161.9968 C.ar    1  UNL1        0.1631
      6 N         142.3918  138.1434  162.9839 N.ar    1  UNL1       -0.2225
      7 C         142.1191  138.7472  164.3297 C.ar    1  UNL1        0.1084
      8 C         142.7386  138.5185  165.6765 C.ar    1  UNL1        0.1184
      9 N         142.2475  139.2861  166.8679 N.ar    1  UNL1       -0.2422
     10 F         139.1728  143.3527  171.4787 F       1  UNL1       -0.1832
     11 C         139.6638  142.5851  170.2872 C.ar    1  UNL1        0.2223
     12 C         140.4833  143.2744  169.2367 C.ar    1  UNL1        0.0497
     13 C         140.9744  142.5068  168.0452 C.ar    1  UNL1        0.0070
     14 C         140.6459  141.0500  167.9041 C.ar    1  UNL1        0.0370
     15 C         139.8265  140.3608  168.9546 C.ar    1  UNL1        0.1027
     16 N         139.3354  141.1283  170.1461 N.ar    1  UNL1       -0.2164
     17 N         141.3756  138.4553  160.5313 N.pl3   1  UNL1       -0.2881
     18 C         140.0695  138.5772  159.8039 C.3     1  UNL1        0.0940
     19 C         139.9954  138.2660  158.3384 C.3     1  UNL1        0.0375
     20 C         141.2273  137.8330  157.6003 C.3     1  UNL1        0.0609
     21 C         142.5334  137.7112  158.3277 C.3     1  UNL1        0.0375
     22 C         142.6076  138.0224  159.7932 C.3     1  UNL1        0.0940
     23 N         141.1532  137.5219  156.1348 N.3     1  UNL1       -0.2738
     24 C         142.3923  137.5824  155.2916 C.3     1  UNL1        0.0720
     25 C         142.3181  137.2712  153.8261 C.3     1  UNL1        0.0174
     26 C         141.0049  136.8996  153.2038 C.3     1  UNL1        0.0029
     27 C         139.7659  136.8391  154.0470 C.3     1  UNL1        0.0174
     28 C         139.8400  137.1502  155.5125 C.3     1  UNL1        0.0720
@<TRIPOS>BOND
     1    10    11    1
     2    11    12   ar
     3    12    13   ar
     4    13    14   ar
     5    14     1    1
     6     1     2   ar
     7     2     3   ar
     8     3     4   ar
     9     4     5   ar
    10     5    17    1
    11    17    18    1
    12    18    19    1
    13    19    20    1
    14    20    23    1
    15    23    24    1
    16    24    25    1
    17    25    26    1
    18    26    27    1
    19    27    28    1
    20    20    21    1
    21    21    22    1
    22     5     6   ar
    23     6     7   ar
    24     7     8   ar
    25     8     9   ar
    26    14    15   ar
    27    15    16   ar
    28    16    11   ar
    29     9     1   ar
    30     7     3   ar
    31    22    17    1
    32    28    23    1
@<TRIPOS>MOLECULE
*****
 28 32 0 0 0
SMALL
GASTEIGER

@<TRIPOS>ATOM
      1 C         141.1269  141.9752  165.4000 C.ar    1  UNL1        0.0834
      2 C         141.8039  140.8896  164.6171 C.ar    1  UNL1        0.0273
      3 C         141.3681  140.5946  163.2125 C.ar    1  UNL1        0.0528
      4 S         141.8444  139.5922  162.2033 S.2     1  UNL1       -0.0514
      5 C         141.0261  139.7634  160.9580 C.ar    1  UNL1        0.1631
      6 N         140.0440  140.8716  161.1974 N.ar    1  UNL1       -0.2225
      7 C         140.2554  141.3854  162.5907 C.ar    1  UNL1        0.1084
      8 C         139.5784  142.4710  163.3736 C.ar    1  UNL1        0.1184
      9 N         140.0141  142.7659  164.7783 N.ar    1  UNL1       -0.2422
     10 F         142.8699  143.1551  171.0188 F       1  UNL1       -0.1832
     11 C         142.4341  142.8601  169.6141 C.ar    1  UNL1        0.2223
     12 C         140.9795  142.9177  169.2524 C.ar    1  UNL1        0.0497
     13 C         140.5438  142.6228  167.8476 C.ar    1  UNL1        0.0070
     14 C         141.5626  142.2702  166.8048 C.ar    1  UNL1        0.0370
     15 C         143.0172  142.2126  167.1665 C.ar    1  UNL1        0.1027
     16 N         143.4529  142.5075  168.5712 N.ar    1  UNL1       -0.2164
     17 N         141.1654  138.9663  159.6949 N.pl3   1  UNL1       -0.2881
     18 C         142.4972  138.3907  159.3144 C.3     1  UNL1        0.0940
     19 C         142.6365  137.5936  158.0513 C.3     1  UNL1        0.0375
     20 C         141.4439  137.3721  157.1689 C.3     1  UNL1        0.0609
     21 C         140.1121  137.9477  157.5494 C.3     1  UNL1        0.0375
     22 C         139.9728  138.7448  158.8125 C.3     1  UNL1        0.0940
     23 N         141.5832  136.5750  155.9058 N.3     1  UNL1       -0.2738
     24 C         142.5557  135.4348  155.8420 C.3     1  UNL1        0.0720
     25 C         142.6950  134.6377  154.5789 C.3     1  UNL1        0.0174
     26 C         141.8618  134.9808  153.3798 C.3     1  UNL1        0.0029
     27 C         140.8893  136.1210  153.4437 C.3     1  UNL1        0.0174
     28 C         140.7500  136.9181  154.7067 C.3     1  UNL1        0.0720
@<TRIPOS>BOND
     1    10    11    1
     2    11    12   ar
     3    12    13   ar
     4    13    14   ar
     5    14     1    1
     6     1     2   ar
     7     2     3   ar
     8     3     4   ar
     9     4     5   ar
    10     5    17    1
    11    17    18    1
    12    18    19    1
    13    19    20    1
    14    20    23    1
    15    23    24    1
    16    24    25    1
    17    25    26    1
    18    26    27    1
    19    27    28    1
    20    20    21    1
    21    21    22    1
    22     5     6   ar
    23     6     7   ar
    24     7     8   ar
    25     8     9   ar
    26    14    15   ar
    27    15    16   ar
    28    16    11   ar
    29     9     1   ar
    30     7     3   ar
    31    22    17    1
    32    28    23    1
@<TRIPOS>MOLECULE
*****
 28 32 0 0 0
SMALL
GASTEIGER

@<TRIPOS>ATOM
      1 C         141.2826  142.5113  166.2084 C.ar    1  UNL1        0.0834
      2 C         142.0344  142.4125  164.9142 C.ar    1  UNL1        0.0273
      3 C         141.5268  143.1250  163.6958 C.ar    1  UNL1        0.0528
      4 S         142.0501  143.2113  162.2927 S.2     1  UNL1       -0.0514
      5 C         141.1141  144.0760  161.5013 C.ar    1  UNL1        0.1631
      6 N         140.0124  144.5241  162.4153 N.ar    1  UNL1       -0.2225
      7 C         140.2674  143.9363  163.7716 C.ar    1  UNL1        0.1084
      8 C         139.5157  144.0351  165.0658 C.ar    1  UNL1        0.1184
      9 N         140.0232  143.3226  166.2842 N.ar    1  UNL1       -0.2422
     10 F         143.3128  139.6610  171.0824 F       1  UNL1       -0.1832
     11 C         142.8052  140.3736  169.8639 C.ar    1  UNL1        0.2223
     12 C         143.3858  141.7009  169.4750 C.ar    1  UNL1        0.0497
     13 C         142.8782  142.4134  168.2565 C.ar    1  UNL1        0.0070
     14 C         141.7902  141.7987  167.4270 C.ar    1  UNL1        0.0370
     15 C         141.2096  140.4714  167.8159 C.ar    1  UNL1        0.1027
     16 N         141.7171  139.7589  169.0343 N.ar    1  UNL1       -0.2164
     17 N         141.2551  144.4304  160.0506 N.pl3   1  UNL1       -0.2881
     18 C         142.3571  143.8233  159.2339 C.3     1  UNL1        0.0940
     19 C         142.4981  144.1776  157.7832 C.3     1  UNL1        0.0375
     20 C         141.5371  145.1391  157.1492 C.3     1  UNL1        0.0609
     21 C         140.4351  145.7462  157.9658 C.3     1  UNL1        0.0375
     22 C         140.2941  145.3918  159.4165 C.3     1  UNL1        0.0940
     23 N         141.6781  145.4935  155.6984 N.3     1  UNL1       -0.2738
     24 C         142.8053  144.9194  154.8923 C.3     1  UNL1        0.0720
     25 C         142.9463  145.2738  153.4416 C.3     1  UNL1        0.0174
     26 C         141.9601  146.2022  152.7970 C.3     1  UNL1        0.0029
     27 C         140.8330  146.7762  153.6032 C.3     1  UNL1        0.0174
     28 C         140.6920  146.4219  155.0539 C.3     1  UNL1        0.0720
@<TRIPOS>BOND
     1    10    11    1
     2    11    12   ar
     3    12    13   ar
     4    13    14   ar
     5    14     1    1
     6     1     2   ar
     7     2     3   ar
     8     3     4   ar
     9     4     5   ar
    10     5    17    1
    11    17    18    1
    12    18    19    1
    13    19    20    1
    14    20    23    1
    15    23    24    1
    16    24    25    1
    17    25    26    1
    18    26    27    1
    19    27    28    1
    20    20    21    1
    21    21    22    1
    22     5     6   ar
    23     6     7   ar
    24     7     8   ar
    25     8     9   ar
    26    14    15   ar
    27    15    16   ar
    28    16    11   ar
    29     9     1   ar
    30     7     3   ar
    31    22    17    1
    32    28    23    1
@<TRIPOS>MOLECULE
*****
 28 32 0 0 0
SMALL
GASTEIGER

@<TRIPOS>ATOM
      1 C         142.1425  142.0236  166.3605 C.ar    1  UNL1        0.0834
      2 C         141.2832  142.1655  165.1393 C.ar    1  UNL1        0.0273
      3 C         141.8451  142.7863  163.8948 C.ar    1  UNL1        0.0528
      4 S         141.2426  143.0572  162.5481 S.2     1  UNL1       -0.0514
      5 C         142.2915  143.7035  161.6925 C.ar    1  UNL1        0.1631
      6 N         143.5423  143.8321  162.5104 N.ar    1  UNL1       -0.2225
      7 C         143.2664  143.2653  163.8716 C.ar    1  UNL1        0.1084
      8 C         144.1258  143.1234  165.0927 C.ar    1  UNL1        0.1184
      9 N         143.5638  142.5025  166.3372 N.ar    1  UNL1       -0.2422
     10 F         139.8949  139.5402  171.3386 F       1  UNL1       -0.1832
     11 C         140.4568  140.1610  170.0941 C.ar    1  UNL1        0.2223
     12 C         139.7928  141.3627  169.4898 C.ar    1  UNL1        0.0497
     13 C         140.3548  141.9836  168.2453 C.ar    1  UNL1        0.0070
     14 C         141.5806  141.4028  167.6050 C.ar    1  UNL1        0.0370
     15 C         142.2446  140.2011  168.2093 C.ar    1  UNL1        0.1027
     16 N         141.6827  139.5802  169.4538 N.ar    1  UNL1       -0.2164
     17 N         142.1198  144.1439  160.2689 N.pl3   1  UNL1       -0.2881
     18 C         141.1238  145.2128  159.9295 C.3     1  UNL1        0.0940
     19 C         140.9521  145.6532  158.5059 C.3     1  UNL1        0.0375
     20 C         141.7764  145.0246  157.4218 C.3     1  UNL1        0.0609
     21 C         142.7725  143.9557  157.7612 C.3     1  UNL1        0.0375
     22 C         142.9442  143.5153  159.1848 C.3     1  UNL1        0.0940
     23 N         141.6047  145.4650  155.9982 N.3     1  UNL1       -0.2738
     24 C         140.5412  146.4619  155.6446 C.3     1  UNL1        0.0720
     25 C         140.3695  146.9023  154.2210 C.3     1  UNL1        0.0174
     26 C         141.2613  146.3458  153.1510 C.3     1  UNL1        0.0029
     27 C         142.3248  145.3489  153.5046 C.3     1  UNL1        0.0174
     28 C         142.4965  144.9085  154.9282 C.3     1  UNL1        0.0720
@<TRIPOS>BOND
     1    10    11    1
     2    11    12   ar
     3    12    13   ar
     4    13    14   ar
     5    14     1    1
     6     1     2   ar
     7     2     3   ar
     8     3     4   ar
     9     4     5   ar
    10     5    17    1
    11    17    18    1
    12    18    19    1
    13    19    20    1
    14    20    23    1
    15    23    24    1
    16    24    25    1
    17    25    26    1
    18    26    27    1
    19    27    28    1
    20    20    21    1
    21    21    22    1
    22     5     6   ar
    23     6     7   ar
    24     7     8   ar
    25     8     9   ar
    26    14    15   ar
    27    15    16   ar
    28    16    11   ar
    29     9     1   ar
    30     7     3   ar
    31    22    17    1
    32    28    23    1
@<TRIPOS>MOLECULE
*****
 28 32 0 0 0
SMALL
GASTEIGER

@<TRIPOS>ATOM
      1 C         140.9295  140.3351  165.3154 C.ar    1  UNL1        0.0834
      2 C         140.8532  139.1217  164.4368 C.ar    1  UNL1        0.0273
      3 C         141.0283  139.2578  162.9533 C.ar    1  UNL1        0.0528
      4 S         141.0048  138.2493  161.8432 S.2     1  UNL1       -0.0514
      5 C         141.2417  138.9754  160.5522 C.ar    1  UNL1        0.1631
      6 N         141.4115  140.4326  160.8644 N.ar    1  UNL1       -0.2225
      7 C         141.2796  140.6072  162.3484 C.ar    1  UNL1        0.1084
      8 C         141.3560  141.8206  163.2270 C.ar    1  UNL1        0.1184
      9 N         141.1809  141.6845  164.7105 N.ar    1  UNL1       -0.2422
     10 F         140.2292  139.7909  171.2495 F       1  UNL1       -0.1832
     11 C         140.4043  139.9270  169.7660 C.ar    1  UNL1        0.2223
     12 C         141.7717  140.1445  169.1890 C.ar    1  UNL1        0.0497
     13 C         141.9468  140.2805  167.7054 C.ar    1  UNL1        0.0070
     14 C         140.7545  140.1990  166.7990 C.ar    1  UNL1        0.0370
     15 C         139.3871  139.9816  167.3760 C.ar    1  UNL1        0.1027
     16 N         139.2120  139.8455  168.8595 N.ar    1  UNL1       -0.2164
     17 N         141.2987  138.3534  159.1884 N.pl3   1  UNL1       -0.2881
     18 C         140.0495  138.2305  158.3673 C.3     1  UNL1        0.0940
     19 C         140.1065  137.6085  157.0035 C.3     1  UNL1        0.0375
     20 C         141.4127  137.1095  156.4608 C.3     1  UNL1        0.0609
     21 C         142.6620  137.2324  157.2819 C.3     1  UNL1        0.0375
     22 C         142.6050  137.8543  158.6457 C.3     1  UNL1        0.0940
     23 N         141.4697  136.4875  155.0970 N.3     1  UNL1       -0.2738
     24 C         141.2021  135.0211  154.9297 C.3     1  UNL1        0.0720
     25 C         141.2591  134.3991  153.5659 C.3     1  UNL1        0.0174
     26 C         141.5837  135.2435  152.3695 C.3     1  UNL1        0.0029
     27 C         141.8514  136.7099  152.5368 C.3     1  UNL1        0.0174
     28 C         141.7944  137.3319  153.9006 C.3     1  UNL1        0.0720
@<TRIPOS>BOND
     1    10    11    1
     2    11    12   ar
     3    12    13   ar
     4    13    14   ar
     5    14     1    1
     6     1     2   ar
     7     2     3   ar
     8     3     4   ar
     9     4     5   ar
    10     5    17    1
    11    17    18    1
    12    18    19    1
    13    19    20    1
    14    20    23    1
    15    23    24    1
    16    24    25    1
    17    25    26    1
    18    26    27    1
    19    27    28    1
    20    20    21    1
    21    21    22    1
    22     5     6   ar
    23     6     7   ar
    24     7     8   ar
    25     8     9   ar
    26    14    15   ar
    27    15    16   ar
    28    16    11   ar
    29     9     1   ar
    30     7     3   ar
    31    22    17    1
    32    28    23    1
