@<TRIPOS>MOLECULE
*****
 36 39 0 0 0
SMALL
GASTEIGER

@<TRIPOS>ATOM
      1 N         141.7132  143.9635  161.6765 N.3     1  UNL1       -0.2673
      2 C         141.4795  142.5493  161.2344 C.3     1  UNL1        0.1035
      3 C         142.0935  141.4137  161.9982 C.3     1  UNL1        0.1470
      4 C         142.7075  140.2780  162.7619 C.3     1  UNL1        0.1035
      5 N         143.5552  140.5565  163.9677 N.3     1  UNL1       -0.2684
      6 C         143.7888  141.9708  164.4097 C.3     1  UNL1        0.1035
      7 C         143.1748  143.1064  163.6460 C.3     1  UNL1        0.1470
      8 C         142.5608  144.2420  162.8822 C.3     1  UNL1        0.1035
      9 O         142.9412  141.6923  163.2039 O.3     1  UNL1       -0.3530
     10 C         141.0991  145.0992  160.9127 C.3     1  UNL1        0.0913
     11 C         140.1441  146.0327  161.5957 C.3     1  UNL1        0.1087
     12 N         138.7944  145.5410  162.0278 N.3     1  UNL1       -0.1780
     13 H         138.3780  146.2817  162.5920 H       1  UNL1        0.1488
     14 S         138.6767  144.2738  162.8216 S.O2    1  UNL1        0.0603
     15 O         139.3097  144.9530  163.9997 O.2     1  UNL1       -0.1530
     16 O         138.0437  143.5946  161.6435 O.2     1  UNL1       -0.1530
     17 C         138.3235  140.4720  165.2032 C.ar    1  UNL1        0.0685
     18 C         139.1815  141.5949  165.7059 C.ar    1  UNL1        0.0116
     19 C         139.2993  142.8622  164.9120 C.ar    1  UNL1        0.0206
     20 C         138.5590  143.0066  163.6155 C.ar    1  UNL1        0.1220
     21 C         137.7008  141.8836  163.1128 C.ar    1  UNL1        0.0206
     22 C         137.5831  140.6164  163.9066 C.ar    1  UNL1        0.0116
     23 N         138.0880  137.9375  166.7909 N.1     1  UNL1       -0.1908
     24 C         138.2057  139.2048  165.9970 C.1     1  UNL1        0.1004
     25 C         144.1692  139.4209  164.7314 C.3     1  UNL1        0.0761
     26 C         143.3251  138.5970  165.6581 C.3     1  UNL1        0.0646
     27 C         142.3726  139.2692  166.6020 C.3     1  UNL1        0.2068
     28 O         142.8973  140.1590  167.6896 O.3     1  UNL1       -0.4753
     29 C         141.9453  140.9564  168.5309 C.ar    1  UNL1        0.1409
     30 C         142.3230  142.3334  168.9904 C.ar    1  UNL1        0.0394
     31 C         141.3710  143.1308  169.8317 C.ar    1  UNL1        0.0351
     32 C         140.0412  142.5512  170.2135 C.ar    1  UNL1        0.1676
     33 F         139.0892  143.3486  171.0548 F       1  UNL1       -0.2018
     34 C         139.6635  141.1742  169.7540 C.ar    1  UNL1        0.1704
     35 F         138.3337  140.5946  170.1358 F       1  UNL1       -0.2017
     36 C         140.6155  140.3768  168.9127 C.ar    1  UNL1        0.0688
@<TRIPOS>BOND
     1    23    24    3
     2    24    17    1
     3    17    18   ar
     4    18    19   ar
     5    19    20   ar
     6    20    14    1
     7    14    15    2
     8    14    16    2
     9    14    12    1
    10    12    11    1
    11    11    10    1
    12    10     1    1
    13     1     2    1
    14     2     3    1
    15     3     4    1
    16     4     5    1
    17     5    25    1
    18    25    26    1
    19    26    27    1
    20    27    28    1
    21    28    29    1
    22    29    30   ar
    23    30    31   ar
    24    31    32   ar
    25    32    33    1
    26    32    34   ar
    27    34    35    1
    28    34    36   ar
    29     5     6    1
    30     6     7    1
    31     7     8    1
    32     7     9    1
    33    20    21   ar
    34    21    22   ar
    35    22    17   ar
    36     8     1    1
    37     9     3    1
    38    36    29   ar
    39    12    13    1
@<TRIPOS>MOLECULE
*****
 36 39 0 0 0
SMALL
GASTEIGER

@<TRIPOS>ATOM
      1 N         141.1670  141.1028  159.3014 N.3     1  UNL1       -0.2673
      2 C         139.7003  140.8536  159.4931 C.3     1  UNL1        0.1035
      3 C         138.9178  141.6896  160.4620 C.3     1  UNL1        0.1470
      4 C         138.1353  142.5256  161.4309 C.3     1  UNL1        0.1035
      5 N         138.8195  143.6108  162.2082 N.3     1  UNL1       -0.2684
      6 C         140.2862  143.8600  162.0165 C.3     1  UNL1        0.1035
      7 C         141.0687  143.0240  161.0476 C.3     1  UNL1        0.1470
      8 C         141.8511  142.1880  160.0787 C.3     1  UNL1        0.1035
      9 O         139.6020  142.7748  161.2393 O.3     1  UNL1       -0.3530
     10 C         141.9495  140.2668  158.3325 C.3     1  UNL1        0.0913
     11 C         141.9607  138.7731  158.4692 C.3     1  UNL1        0.1087
     12 N         143.0197  138.1034  159.2941 N.3     1  UNL1       -0.1780
     13 H         142.9544  137.1038  159.1018 H       1  UNL1        0.1488
     14 S         143.0180  138.2584  160.7860 S.O2    1  UNL1        0.0603
     15 O         141.5792  137.8362  160.8282 O.2     1  UNL1       -0.1530
     16 O         144.4567  138.6805  160.7438 O.2     1  UNL1       -0.1530
     17 C         143.0129  138.7232  165.2619 C.ar    1  UNL1        0.0685
     18 C         141.9292  137.9345  164.5886 C.ar    1  UNL1        0.0116
     19 C         141.9308  137.7795  163.0966 C.ar    1  UNL1        0.0206
     20 C         143.0163  138.4133  162.2780 C.ar    1  UNL1        0.1220
     21 C         144.1000  139.2021  162.9514 C.ar    1  UNL1        0.0206
     22 C         144.0983  139.3570  164.4433 C.ar    1  UNL1        0.0116
     23 N         143.0094  139.0331  168.2459 N.1     1  UNL1       -0.1908
     24 C         143.0112  138.8782  166.7539 C.1     1  UNL1        0.1004
     25 C         138.0370  144.4468  163.1771 C.3     1  UNL1        0.0761
     26 C         137.9944  144.0704  164.6285 C.3     1  UNL1        0.0646
     27 C         139.2643  144.0050  165.4240 C.3     1  UNL1        0.2068
     28 O         140.1867  142.8323  165.2692 O.3     1  UNL1       -0.4753
     29 C         139.6683  141.4389  165.4686 C.ar    1  UNL1        0.1409
     30 C         139.6282  140.8433  166.8447 C.ar    1  UNL1        0.0394
     31 C         139.1098  139.4500  167.0440 C.ar    1  UNL1        0.0351
     32 C         138.6315  138.6522  165.8673 C.ar    1  UNL1        0.1676
     33 F         138.1131  137.2587  166.0667 F       1  UNL1       -0.2018
     34 C         138.6717  139.2477  164.4912 C.ar    1  UNL1        0.1704
     35 F         138.1934  138.4498  163.3145 F       1  UNL1       -0.2017
     36 C         139.1900  140.6410  164.2919 C.ar    1  UNL1        0.0688
@<TRIPOS>BOND
     1    23    24    3
     2    24    17    1
     3    17    18   ar
     4    18    19   ar
     5    19    20   ar
     6    20    14    1
     7    14    15    2
     8    14    16    2
     9    14    12    1
    10    12    11    1
    11    11    10    1
    12    10     1    1
    13     1     2    1
    14     2     3    1
    15     3     4    1
    16     4     5    1
    17     5    25    1
    18    25    26    1
    19    26    27    1
    20    27    28    1
    21    28    29    1
    22    29    30   ar
    23    30    31   ar
    24    31    32   ar
    25    32    33    1
    26    32    34   ar
    27    34    35    1
    28    34    36   ar
    29     5     6    1
    30     6     7    1
    31     7     8    1
    32     7     9    1
    33    20    21   ar
    34    21    22   ar
    35    22    17   ar
    36     8     1    1
    37     9     3    1
    38    36    29   ar
    39    12    13    1
@<TRIPOS>MOLECULE
*****
 36 39 0 0 0
SMALL
GASTEIGER

@<TRIPOS>ATOM
      1 N         142.1311  140.3487  167.6786 N.3     1  UNL1       -0.2673
      2 C         142.6181  141.7670  167.7156 C.3     1  UNL1        0.1035
      3 C         143.3626  142.3351  166.5439 C.3     1  UNL1        0.1470
      4 C         144.1072  142.9033  165.3722 C.3     1  UNL1        0.1035
      5 N         144.3646  142.0532  164.1634 N.3     1  UNL1       -0.2684
      6 C         143.8776  140.6349  164.1264 C.3     1  UNL1        0.1035
      7 C         143.1331  140.0668  165.2981 C.3     1  UNL1        0.1470
      8 C         142.3886  139.4987  166.4698 C.3     1  UNL1        0.1035
      9 O         143.6201  141.4850  165.3352 O.3     1  UNL1       -0.3530
     10 C         141.3866  139.7805  168.8503 C.3     1  UNL1        0.0913
     11 C         139.9622  140.1795  169.0988 C.3     1  UNL1        0.1087
     12 N         138.8452  139.4104  168.4577 N.3     1  UNL1       -0.1780
     13 H         138.9838  138.4301  168.7032 H       1  UNL1        0.1488
     14 S         138.6561  139.4618  166.9706 S.O2    1  UNL1        0.0603
     15 O         139.2288  140.8479  166.9457 O.2     1  UNL1       -0.1530
     16 O         138.0833  138.0758  166.9955 O.2     1  UNL1       -0.1530
     17 C         138.0888  139.6162  162.5092 C.ar    1  UNL1        0.0685
     18 C         138.6124  138.3682  163.1559 C.ar    1  UNL1        0.0116
     19 C         138.8015  138.3167  164.6431 C.ar    1  UNL1        0.0206
     20 C         138.4670  139.5133  165.4835 C.ar    1  UNL1        0.1220
     21 C         137.9433  140.7613  164.8367 C.ar    1  UNL1        0.0206
     22 C         137.7542  140.8127  163.3496 C.ar    1  UNL1        0.0116
     23 N         137.7106  139.7190  159.5349 N.1     1  UNL1       -0.1908
     24 C         137.8997  139.6676  161.0221 C.1     1  UNL1        0.1004
     25 C         145.1091  142.6214  162.9917 C.3     1  UNL1        0.0761
     26 C         144.3604  143.0565  161.7669 C.3     1  UNL1        0.0646
     27 C         143.0853  143.8343  161.9041 C.3     1  UNL1        0.2068
     28 O         141.7644  143.1266  161.8385 O.3     1  UNL1       -0.4753
     29 C         140.6410  143.5503  162.7377 C.ar    1  UNL1        0.1409
     30 C         139.3571  144.0538  162.1476 C.ar    1  UNL1        0.0394
     31 C         138.2338  144.4775  163.0468 C.ar    1  UNL1        0.0351
     32 C         138.3943  144.3977  164.5361 C.ar    1  UNL1        0.1676
     33 F         137.2709  144.8214  165.4353 F       1  UNL1       -0.2018
     34 C         139.6781  143.8942  165.1261 C.ar    1  UNL1        0.1704
     35 F         139.8387  143.8144  166.6154 F       1  UNL1       -0.2017
     36 C         140.8015  143.4705  164.2270 C.ar    1  UNL1        0.0688
@<TRIPOS>BOND
     1    23    24    3
     2    24    17    1
     3    17    18   ar
     4    18    19   ar
     5    19    20   ar
     6    20    14    1
     7    14    15    2
     8    14    16    2
     9    14    12    1
    10    12    11    1
    11    11    10    1
    12    10     1    1
    13     1     2    1
    14     2     3    1
    15     3     4    1
    16     4     5    1
    17     5    25    1
    18    25    26    1
    19    26    27    1
    20    27    28    1
    21    28    29    1
    22    29    30   ar
    23    30    31   ar
    24    31    32   ar
    25    32    33    1
    26    32    34   ar
    27    34    35    1
    28    34    36   ar
    29     5     6    1
    30     6     7    1
    31     7     8    1
    32     7     9    1
    33    20    21   ar
    34    21    22   ar
    35    22    17   ar
    36     8     1    1
    37     9     3    1
    38    36    29   ar
    39    12    13    1
@<TRIPOS>MOLECULE
*****
 36 39 0 0 0
SMALL
GASTEIGER

@<TRIPOS>ATOM
      1 N         140.6124  139.2694  159.5153 N.3     1  UNL1       -0.2673
      2 C         139.8411  138.4579  160.5135 C.3     1  UNL1        0.1035
      3 C         139.0537  139.1443  161.5900 C.3     1  UNL1        0.1470
      4 C         138.2662  139.8307  162.6664 C.3     1  UNL1        0.1035
      5 N         138.2499  141.3286  162.7446 N.3     1  UNL1       -0.2684
      6 C         139.0212  142.1400  161.7462 C.3     1  UNL1        0.1035
      7 C         139.8087  141.4536  160.6698 C.3     1  UNL1        0.1470
      8 C         140.5962  140.7672  159.5934 C.3     1  UNL1        0.1035
      9 O         139.0375  140.6422  161.6681 O.3     1  UNL1       -0.3530
     10 C         141.3999  138.5830  158.4388 C.3     1  UNL1        0.0913
     11 C         142.7684  138.0462  158.7371 C.3     1  UNL1        0.1087
     12 N         143.7288  138.8550  159.5578 N.3     1  UNL1       -0.1780
     13 H         144.6642  138.5112  159.3403 H       1  UNL1        0.1488
     14 S         143.6099  138.8701  161.0530 S.O2    1  UNL1        0.0603
     15 O         143.6925  140.3677  161.0445 O.2     1  UNL1       -0.1530
     16 O         143.5272  137.3724  161.0614 O.2     1  UNL1       -0.1530
     17 C         143.2530  138.9151  165.5385 C.ar    1  UNL1        0.0685
     18 C         142.2112  138.2235  164.7102 C.ar    1  UNL1        0.0116
     19 C         142.3301  138.2084  163.2150 C.ar    1  UNL1        0.0206
     20 C         143.4909  138.8851  162.5481 C.ar    1  UNL1        0.1220
     21 C         144.5327  139.5768  163.3765 C.ar    1  UNL1        0.0206
     22 C         144.4138  139.5918  164.8717 C.ar    1  UNL1        0.0116
     23 N         143.0151  138.9452  168.5290 N.1     1  UNL1       -0.1908
     24 C         143.1340  138.9302  167.0337 C.1     1  UNL1        0.1004
     25 C         137.4625  142.0150  163.8210 C.3     1  UNL1        0.0761
     26 C         137.4093  143.5132  163.8718 C.3     1  UNL1        0.0646
     27 C         138.3409  144.2665  164.7743 C.3     1  UNL1        0.2068
     28 O         139.4821  145.0464  164.1917 O.3     1  UNL1       -0.4753
     29 C         140.8773  144.5001  164.2624 C.ar    1  UNL1        0.1409
     30 C         141.1630  143.2763  165.0813 C.ar    1  UNL1        0.0394
     31 C         142.5582  142.7301  165.1519 C.ar    1  UNL1        0.0351
     32 C         143.6677  143.4076  164.4036 C.ar    1  UNL1        0.1676
     33 F         145.0630  142.8613  164.4743 F       1  UNL1       -0.2018
     34 C         143.3820  144.6314  163.5847 C.ar    1  UNL1        0.1704
     35 F         144.4915  145.3089  162.8363 F       1  UNL1       -0.2017
     36 C         141.9868  145.1776  163.5141 C.ar    1  UNL1        0.0688
@<TRIPOS>BOND
     1    23    24    3
     2    24    17    1
     3    17    18   ar
     4    18    19   ar
     5    19    20   ar
     6    20    14    1
     7    14    15    2
     8    14    16    2
     9    14    12    1
    10    12    11    1
    11    11    10    1
    12    10     1    1
    13     1     2    1
    14     2     3    1
    15     3     4    1
    16     4     5    1
    17     5    25    1
    18    25    26    1
    19    26    27    1
    20    27    28    1
    21    28    29    1
    22    29    30   ar
    23    30    31   ar
    24    31    32   ar
    25    32    33    1
    26    32    34   ar
    27    34    35    1
    28    34    36   ar
    29     5     6    1
    30     6     7    1
    31     7     8    1
    32     7     9    1
    33    20    21   ar
    34    21    22   ar
    35    22    17   ar
    36     8     1    1
    37     9     3    1
    38    36    29   ar
    39    12    13    1
@<TRIPOS>MOLECULE
*****
 36 39 0 0 0
SMALL
GASTEIGER

@<TRIPOS>ATOM
      1 N         142.3270  144.2913  160.8229 N.3     1  UNL1       -0.2673
      2 C         142.7581  142.9995  160.1941 C.3     1  UNL1        0.1035
      3 C         143.5440  142.0022  160.9926 C.3     1  UNL1        0.1470
      4 C         144.3299  141.0048  161.7911 C.3     1  UNL1        0.1035
      5 N         144.6847  141.2992  163.2185 N.3     1  UNL1       -0.2684
      6 C         144.2536  142.5910  163.8473 C.3     1  UNL1        0.1035
      7 C         143.4677  143.5884  163.0488 C.3     1  UNL1        0.1470
      8 C         142.6818  144.5857  162.2503 C.3     1  UNL1        0.1035
      9 O         143.8988  142.2966  162.4200 O.3     1  UNL1       -0.3530
     10 C         141.5410  145.2887  160.0244 C.3     1  UNL1        0.0913
     11 C         140.0418  145.2700  160.0678 C.3     1  UNL1        0.1087
     12 N         139.3266  145.4715  161.3709 N.3     1  UNL1       -0.1780
     13 H         139.8739  146.1457  161.9060 H       1  UNL1        0.1488
     14 S         139.0741  144.3026  162.2764 S.O2    1  UNL1        0.0603
     15 O         138.6308  143.4861  161.0988 O.2     1  UNL1       -0.1530
     16 O         139.5173  145.1192  163.4540 O.2     1  UNL1       -0.1530
     17 C         138.3165  140.7960  164.9929 C.ar    1  UNL1        0.0685
     18 C         139.4692  141.7175  165.2615 C.ar    1  UNL1        0.0116
     19 C         139.7217  142.8864  164.3560 C.ar    1  UNL1        0.0206
     20 C         138.8216  143.1338  163.1819 C.ar    1  UNL1        0.1220
     21 C         137.6688  142.2123  162.9133 C.ar    1  UNL1        0.0206
     22 C         137.4163  141.0434  163.8188 C.ar    1  UNL1        0.0116
     23 N         137.8114  138.4583  166.8040 N.1     1  UNL1       -0.1908
     24 C         138.0640  139.6272  165.8984 C.1     1  UNL1        0.1004
     25 C         145.4706  140.3019  164.0170 C.3     1  UNL1        0.0761
     26 C         144.7571  139.2794  164.8510 C.3     1  UNL1        0.0646
     27 C         143.3124  139.4749  165.2037 C.3     1  UNL1        0.2068
     28 O         142.3322  138.3585  164.9967 O.3     1  UNL1       -0.4753
     29 C         141.2629  138.4832  163.9521 C.ar    1  UNL1        0.1409
     30 C         140.1335  137.4969  163.9135 C.ar    1  UNL1        0.0394
     31 C         139.0643  137.6216  162.8690 C.ar    1  UNL1        0.0351
     32 C         139.1245  138.7326  161.8630 C.ar    1  UNL1        0.1676
     33 F         138.0552  138.8573  160.8183 F       1  UNL1       -0.2018
     34 C         140.2540  139.7189  161.9016 C.ar    1  UNL1        0.1704
     35 F         140.3142  140.8299  160.8956 F       1  UNL1       -0.2017
     36 C         141.3232  139.5942  162.9461 C.ar    1  UNL1        0.0688
@<TRIPOS>BOND
     1    23    24    3
     2    24    17    1
     3    17    18   ar
     4    18    19   ar
     5    19    20   ar
     6    20    14    1
     7    14    15    2
     8    14    16    2
     9    14    12    1
    10    12    11    1
    11    11    10    1
    12    10     1    1
    13     1     2    1
    14     2     3    1
    15     3     4    1
    16     4     5    1
    17     5    25    1
    18    25    26    1
    19    26    27    1
    20    27    28    1
    21    28    29    1
    22    29    30   ar
    23    30    31   ar
    24    31    32   ar
    25    32    33    1
    26    32    34   ar
    27    34    35    1
    28    34    36   ar
    29     5     6    1
    30     6     7    1
    31     7     8    1
    32     7     9    1
    33    20    21   ar
    34    21    22   ar
    35    22    17   ar
    36     8     1    1
    37     9     3    1
    38    36    29   ar
    39    12    13    1
@<TRIPOS>MOLECULE
*****
 36 39 0 0 0
SMALL
GASTEIGER

@<TRIPOS>ATOM
      1 N         139.6450  143.0038  159.9691 N.3     1  UNL1       -0.2673
      2 C         138.6530  142.9813  161.0940 C.3     1  UNL1        0.1035
      3 C         138.3196  141.6867  161.7741 C.3     1  UNL1        0.1470
      4 C         137.9861  140.3920  162.4543 C.3     1  UNL1        0.1035
      5 N         138.6447  139.1198  162.0095 N.3     1  UNL1       -0.2684
      6 C         139.6367  139.1423  160.8846 C.3     1  UNL1        0.1035
      7 C         139.9701  140.4370  160.2045 C.3     1  UNL1        0.1470
      8 C         140.3036  141.7316  159.5243 C.3     1  UNL1        0.1035
      9 O         138.9782  140.4145  161.3293 O.3     1  UNL1       -0.3530
     10 C         139.9784  144.2985  159.2889 C.3     1  UNL1        0.0913
     11 C         140.4492  145.4710  160.0974 C.3     1  UNL1        0.1087
     12 N         141.7999  145.4388  160.7490 N.3     1  UNL1       -0.1780
     13 H         142.4412  145.0178  160.0768 H       1  UNL1        0.1488
     14 S         141.9901  144.7081  162.0451 S.O2    1  UNL1        0.0603
     15 O         143.2106  144.0374  161.4879 O.2     1  UNL1       -0.1530
     16 O         140.7696  145.3788  162.6023 O.2     1  UNL1       -0.1530
     17 C         142.5606  142.5161  165.9335 C.ar    1  UNL1        0.0685
     18 C         143.7241  143.2033  165.2823 C.ar    1  UNL1        0.0116
     19 C         143.5339  143.9340  163.9861 C.ar    1  UNL1        0.0206
     20 C         142.1803  143.9775  163.3412 C.ar    1  UNL1        0.1220
     21 C         141.0169  143.2902  163.9925 C.ar    1  UNL1        0.0206
     22 C         141.2070  142.5595  165.2886 C.ar    1  UNL1        0.0116
     23 N         142.9411  141.0547  168.5257 N.1     1  UNL1       -0.1908
     24 C         142.7508  141.7854  167.2296 C.1     1  UNL1        0.1004
     25 C         138.3113  137.8251  162.6897 C.3     1  UNL1        0.0761
     26 C         139.2099  137.2895  163.7647 C.3     1  UNL1        0.0646
     27 C         139.8110  138.2225  164.7737 C.3     1  UNL1        0.2068
     28 O         141.2248  138.0211  165.2326 O.3     1  UNL1       -0.4753
     29 C         142.3364  138.8089  164.6050 C.ar    1  UNL1        0.1409
     30 C         143.7006  138.8088  165.2286 C.ar    1  UNL1        0.0394
     31 C         144.8121  139.5966  164.6011 C.ar    1  UNL1        0.0351
     32 C         144.5595  140.3843  163.3498 C.ar    1  UNL1        0.1676
     33 F         145.6712  141.1721  162.7222 F       1  UNL1       -0.2018
     34 C         143.1953  140.3844  162.7262 C.ar    1  UNL1        0.1704
     35 F         142.9427  141.1721  161.4749 F       1  UNL1       -0.2017
     36 C         142.0838  139.5967  163.3537 C.ar    1  UNL1        0.0688
@<TRIPOS>BOND
     1    23    24    3
     2    24    17    1
     3    17    18   ar
     4    18    19   ar
     5    19    20   ar
     6    20    14    1
     7    14    15    2
     8    14    16    2
     9    14    12    1
    10    12    11    1
    11    11    10    1
    12    10     1    1
    13     1     2    1
    14     2     3    1
    15     3     4    1
    16     4     5    1
    17     5    25    1
    18    25    26    1
    19    26    27    1
    20    27    28    1
    21    28    29    1
    22    29    30   ar
    23    30    31   ar
    24    31    32   ar
    25    32    33    1
    26    32    34   ar
    27    34    35    1
    28    34    36   ar
    29     5     6    1
    30     6     7    1
    31     7     8    1
    32     7     9    1
    33    20    21   ar
    34    21    22   ar
    35    22    17   ar
    36     8     1    1
    37     9     3    1
    38    36    29   ar
    39    12    13    1
@<TRIPOS>MOLECULE
*****
 36 39 0 0 0
SMALL
GASTEIGER

@<TRIPOS>ATOM
      1 N         143.0150  140.3748  160.5980 N.3     1  UNL1       -0.2673
      2 C         141.6608  140.9943  160.7775 C.3     1  UNL1        0.1035
      3 C         140.6277  140.3076  161.6208 C.3     1  UNL1        0.1470
      4 C         139.5946  139.6209  162.4641 C.3     1  UNL1        0.1035
      5 N         139.9157  138.3146  163.1279 N.3     1  UNL1       -0.2684
      6 C         141.2700  137.6951  162.9484 C.3     1  UNL1        0.1035
      7 C         142.3031  138.3818  162.1051 C.3     1  UNL1        0.1470
      8 C         143.3361  139.0685  161.2618 C.3     1  UNL1        0.1035
      9 O         140.9489  139.0014  162.2846 O.3     1  UNL1       -0.3530
     10 C         144.0482  141.0615  159.7547 C.3     1  UNL1        0.0913
     11 C         144.4478  142.4744  160.0609 C.3     1  UNL1        0.1087
     12 N         145.2931  142.7708  161.2641 N.3     1  UNL1       -0.1780
     13 H         146.1498  142.2265  161.1635 H       1  UNL1        0.1488
     14 S         144.7631  142.4937  162.6397 S.O2    1  UNL1        0.0603
     15 O         143.6151  143.4249  162.3850 O.2     1  UNL1       -0.1530
     16 O         145.9111  141.5625  162.8944 O.2     1  UNL1       -0.1530
     17 C         143.1731  141.6623  166.7665 C.ar    1  UNL1        0.0685
     18 C         143.1292  140.5923  165.7162 C.ar    1  UNL1        0.0116
     19 C         143.6592  140.8694  164.3406 C.ar    1  UNL1        0.0206
     20 C         144.2331  142.2165  164.0153 C.ar    1  UNL1        0.1220
     21 C         144.2769  143.2866  165.0656 C.ar    1  UNL1        0.0206
     22 C         143.7469  143.0094  166.4412 C.ar    1  UNL1        0.0116
     23 N         142.1130  141.1080  169.5177 N.1     1  UNL1       -0.1908
     24 C         142.6431  141.3851  168.1421 C.1     1  UNL1        0.1004
     25 C         138.8826  137.6279  163.9711 C.3     1  UNL1        0.0761
     26 C         138.7142  138.0117  165.4115 C.3     1  UNL1        0.0646
     27 C         138.1777  139.3661  165.7690 C.3     1  UNL1        0.2068
     28 O         139.1226  140.4941  166.0599 O.3     1  UNL1       -0.4753
     29 C         139.0608  141.7530  165.2466 C.ar    1  UNL1        0.1409
     30 C         137.8147  142.0926  164.4836 C.ar    1  UNL1        0.0394
     31 C         137.7529  143.3514  163.6704 C.ar    1  UNL1        0.0351
     32 C         138.9372  144.2707  163.6200 C.ar    1  UNL1        0.1676
     33 F         138.8753  145.5296  162.8067 F       1  UNL1       -0.2018
     34 C         140.1832  143.9311  164.3829 C.ar    1  UNL1        0.1704
     35 F         141.3674  144.8504  164.3326 F       1  UNL1       -0.2017
     36 C         140.2450  142.6723  165.1962 C.ar    1  UNL1        0.0688
@<TRIPOS>BOND
     1    23    24    3
     2    24    17    1
     3    17    18   ar
     4    18    19   ar
     5    19    20   ar
     6    20    14    1
     7    14    15    2
     8    14    16    2
     9    14    12    1
    10    12    11    1
    11    11    10    1
    12    10     1    1
    13     1     2    1
    14     2     3    1
    15     3     4    1
    16     4     5    1
    17     5    25    1
    18    25    26    1
    19    26    27    1
    20    27    28    1
    21    28    29    1
    22    29    30   ar
    23    30    31   ar
    24    31    32   ar
    25    32    33    1
    26    32    34   ar
    27    34    35    1
    28    34    36   ar
    29     5     6    1
    30     6     7    1
    31     7     8    1
    32     7     9    1
    33    20    21   ar
    34    21    22   ar
    35    22    17   ar
    36     8     1    1
    37     9     3    1
    38    36    29   ar
    39    12    13    1
@<TRIPOS>MOLECULE
*****
 36 39 0 0 0
SMALL
GASTEIGER

@<TRIPOS>ATOM
      1 N         138.5783  140.1076  165.0767 N.3     1  UNL1       -0.2673
      2 C         139.4739  141.1204  165.7263 C.3     1  UNL1        0.1035
      3 C         139.6608  142.4693  165.0974 C.3     1  UNL1        0.1470
      4 C         139.8477  143.8182  164.4684 C.3     1  UNL1        0.1035
      5 N         139.1390  144.1543  163.1898 N.3     1  UNL1       -0.2684
      6 C         138.2433  143.1414  162.5402 C.3     1  UNL1        0.1035
      7 C         138.0564  141.7925  163.1692 C.3     1  UNL1        0.1470
      8 C         137.8695  140.4437  163.7982 C.3     1  UNL1        0.1035
      9 O         138.9521  142.8053  163.8188 O.3     1  UNL1       -0.3530
     10 C         138.3914  138.7587  165.7057 C.3     1  UNL1        0.0913
     11 C         138.9453  137.5359  165.0365 C.3     1  UNL1        0.1087
     12 N         140.4284  137.3722  164.8822 N.3     1  UNL1       -0.1780
     13 H         140.8616  137.8577  165.6677 H       1  UNL1        0.1488
     14 S         141.1119  137.8623  163.6402 S.O2    1  UNL1        0.0603
     15 O         142.1977  138.4703  164.4776 O.2     1  UNL1       -0.1530
     16 O         140.0261  137.2543  162.8028 O.2     1  UNL1       -0.1530
     17 C         143.1622  139.3326  159.9141 C.ar    1  UNL1        0.0685
     18 C         141.7018  139.6033  160.1229 C.ar    1  UNL1        0.0116
     19 C         141.0183  139.1132  161.3650 C.ar    1  UNL1        0.0206
     20 C         141.7953  138.3524  162.3982 C.ar    1  UNL1        0.1220
     21 C         143.2559  138.0817  162.1892 C.ar    1  UNL1        0.0206
     22 C         143.9393  138.5718  160.9472 C.ar    1  UNL1        0.0116
     23 N         144.5292  140.3127  157.4299 N.1     1  UNL1       -0.1908
     24 C         143.8457  139.8227  158.6720 C.1     1  UNL1        0.1004
     25 C         139.3259  145.5031  162.5609 C.3     1  UNL1        0.0761
     26 C         140.1527  145.6426  161.3171 C.3     1  UNL1        0.0646
     27 C         141.0458  144.5195  160.8803 C.3     1  UNL1        0.2068
     28 O         142.5331  144.7121  160.8506 O.3     1  UNL1       -0.4753
     29 C         143.4162  143.8682  161.7213 C.ar    1  UNL1        0.1409
     30 C         144.1354  142.6875  161.1395 C.ar    1  UNL1        0.0394
     31 C         145.0184  141.8436  162.0101 C.ar    1  UNL1        0.0351
     32 C         145.1822  142.1805  163.4626 C.ar    1  UNL1        0.1676
     33 F         146.0653  141.3365  164.3333 F       1  UNL1       -0.2018
     34 C         144.4630  143.3612  164.0444 C.ar    1  UNL1        0.1704
     35 F         144.6268  143.6980  165.4969 F       1  UNL1       -0.2017
     36 C         143.5800  144.2050  163.1738 C.ar    1  UNL1        0.0688
@<TRIPOS>BOND
     1    23    24    3
     2    24    17    1
     3    17    18   ar
     4    18    19   ar
     5    19    20   ar
     6    20    14    1
     7    14    15    2
     8    14    16    2
     9    14    12    1
    10    12    11    1
    11    11    10    1
    12    10     1    1
    13     1     2    1
    14     2     3    1
    15     3     4    1
    16     4     5    1
    17     5    25    1
    18    25    26    1
    19    26    27    1
    20    27    28    1
    21    28    29    1
    22    29    30   ar
    23    30    31   ar
    24    31    32   ar
    25    32    33    1
    26    32    34   ar
    27    34    35    1
    28    34    36   ar
    29     5     6    1
    30     6     7    1
    31     7     8    1
    32     7     9    1
    33    20    21   ar
    34    21    22   ar
    35    22    17   ar
    36     8     1    1
    37     9     3    1
    38    36    29   ar
    39    12    13    1
@<TRIPOS>MOLECULE
*****
 36 39 0 0 0
SMALL
GASTEIGER

@<TRIPOS>ATOM
      1 N         142.4109  142.4894  166.4052 N.3     1  UNL1       -0.2673
      2 C         140.9425  142.7901  166.3476 C.3     1  UNL1        0.1035
      3 C         140.3944  143.6427  165.2419 C.3     1  UNL1        0.1470
      4 C         139.8462  144.4954  164.1363 C.3     1  UNL1        0.1035
      5 N         140.7665  145.0474  163.0882 N.3     1  UNL1       -0.2684
      6 C         142.2350  144.7467  163.1458 C.3     1  UNL1        0.1035
      7 C         142.7831  143.8940  164.2515 C.3     1  UNL1        0.1470
      8 C         143.3312  143.0413  165.3571 C.3     1  UNL1        0.1035
      9 O         141.3147  144.1947  164.1939 O.3     1  UNL1       -0.3530
     10 C         142.9591  141.6367  167.5108 C.3     1  UNL1        0.0913
     11 C         142.2078  140.4194  167.9621 C.3     1  UNL1        0.1087
     12 N         142.5905  139.0658  167.4410 N.3     1  UNL1       -0.1780
     13 H         143.5193  138.8604  167.8092 H       1  UNL1        0.1488
     14 S         142.6466  138.8197  165.9625 S.O2    1  UNL1        0.0603
     15 O         144.0918  138.4357  166.0812 O.2     1  UNL1       -0.1530
     16 O         141.2015  139.2036  165.8437 O.2     1  UNL1       -0.1530
     17 C         142.8151  138.0813  161.5267 C.ar    1  UNL1        0.0685
     18 C         141.6597  137.5621  162.3300 C.ar    1  UNL1        0.0116
     19 C         141.6035  137.8082  163.8087 C.ar    1  UNL1        0.0206
     20 C         142.7028  138.5735  164.4839 C.ar    1  UNL1        0.1220
     21 C         143.8582  139.0927  163.6804 C.ar    1  UNL1        0.0206
     22 C         143.9143  138.8466  162.2019 C.ar    1  UNL1        0.0116
     23 N         142.9274  137.5890  158.5694 N.1     1  UNL1       -0.1908
     24 C         142.8712  137.8352  160.0481 C.1     1  UNL1        0.1004
     25 C         140.2184  145.9001  161.9826 C.3     1  UNL1        0.0761
     26 C         140.1128  145.3482  160.5917 C.3     1  UNL1        0.0646
     27 C         139.7014  143.9213  160.3803 C.3     1  UNL1        0.2068
     28 O         138.4672  143.3900  161.0468 O.3     1  UNL1       -0.4753
     29 C         138.4100  141.9570  161.4867 C.ar    1  UNL1        0.1409
     30 C         138.6314  140.8573  160.4910 C.ar    1  UNL1        0.0394
     31 C         138.5743  139.4245  160.9310 C.ar    1  UNL1        0.0351
     32 C         138.2958  139.0913  162.3667 C.ar    1  UNL1        0.1676
     33 F         138.2387  137.6584  162.8067 F       1  UNL1       -0.2018
     34 C         138.0744  140.1910  163.3625 C.ar    1  UNL1        0.1704
     35 F         137.7959  139.8579  164.7983 F       1  UNL1       -0.2017
     36 C         138.1315  141.6239  162.9225 C.ar    1  UNL1        0.0688
@<TRIPOS>BOND
     1    23    24    3
     2    24    17    1
     3    17    18   ar
     4    18    19   ar
     5    19    20   ar
     6    20    14    1
     7    14    15    2
     8    14    16    2
     9    14    12    1
    10    12    11    1
    11    11    10    1
    12    10     1    1
    13     1     2    1
    14     2     3    1
    15     3     4    1
    16     4     5    1
    17     5    25    1
    18    25    26    1
    19    26    27    1
    20    27    28    1
    21    28    29    1
    22    29    30   ar
    23    30    31   ar
    24    31    32   ar
    25    32    33    1
    26    32    34   ar
    27    34    35    1
    28    34    36   ar
    29     5     6    1
    30     6     7    1
    31     7     8    1
    32     7     9    1
    33    20    21   ar
    34    21    22   ar
    35    22    17   ar
    36     8     1    1
    37     9     3    1
    38    36    29   ar
    39    12    13    1
