@<TRIPOS>MOLECULE
*****
 30 33 0 0 0
SMALL
GASTEIGER

@<TRIPOS>ATOM
      1 C         140.2275  142.4191  166.6000 C.ar    1  UNL1        0.0860
      2 C         140.0743  143.4222  165.4953 C.ar    1  UNL1        0.0250
      3 C         139.1310  142.8512  164.4783 C.ar    1  UNL1        0.0668
      4 C         138.6079  143.3908  163.1802 C.ar    1  UNL1        0.1333
      5 N         137.6549  142.5746  162.3583 N.ar    1  UNL1       -0.2108
      6 C         137.2251  141.2187  162.8345 C.ar    1  UNL1        0.1773
      7 N         137.7482  140.6791  164.1326 N.ar    1  UNL1       -0.3214
      8 C         138.7011  141.4953  164.9545 C.ar    1  UNL1        0.1443
      9 N         139.3788  141.2283  166.2658 N.ar    1  UNL1       -0.2283
     10 H         137.4661  139.7892  164.4451 H       1  UNL1        0.1689
     11 C         142.4672  142.0094  167.8515 C.ar    1  UNL1        0.1401
     12 C         143.3194  142.1691  169.0755 C.ar    1  UNL1        0.0369
     13 C         142.7841  142.8981  170.2721 C.ar    1  UNL1        0.0031
     14 C         141.3966  143.4675  170.2447 C.ar    1  UNL1        0.0002
     15 C         140.5444  143.3079  169.0207 C.ar    1  UNL1        0.0045
     16 C         141.0797  142.5788  167.8241 C.ar    1  UNL1        0.0517
     17 C         142.8793  139.7879  166.5689 C.3     1  UNL1        0.2525
     18 O         143.0024  141.2804  166.6548 O.3     1  UNL1       -0.4714
     19 N         139.0377  144.7468  162.7040 N.pl3   1  UNL1       -0.3139
     20 H         138.4681  145.5316  162.8739 H       1  UNL1        0.1485
     21 CA        140.3354  144.9069  161.9689 C.3     1  UNL1        0.1227
     22 C         141.6161  144.4454  162.5988 C.ar    1  UNL1       -0.0021
     23 C         142.1459  143.0736  162.3027 C.ar    1  UNL1       -0.0026
     24 C         143.4266  142.6121  162.9326 C.ar    1  UNL1       -0.0003
     25 C         144.1775  143.5223  163.8586 C.ar    1  UNL1       -0.0000
     26 C         143.6478  144.8940  164.1548 C.ar    1  UNL1       -0.0003
     27 C         142.3671  145.3556  163.5249 C.ar    1  UNL1       -0.0026
     28 C         140.3524  145.5286  160.6039 C.3     1  UNL1        0.1611
     29 O         141.6351  145.6039  159.8300 O.3     1  UNL1       -0.3799
     30 H         142.2535  146.1961  160.2858 H       1  UNL1        0.2105
@<TRIPOS>BOND
     1    17    18    1
     2    18    11    1
     3    11    12   ar
     4    12    13   ar
     5    13    14   ar
     6    14    15   ar
     7    15    16   ar
     8    16     1    1
     9     1     2   ar
    10     2     3   ar
    11     3     4   ar
    12     4    19    1
    13    19    21    1
    14    21    28    1
    15    28    29    1
    16    21    22    1
    17    22    23   ar
    18    23    24   ar
    19    24    25   ar
    20    25    26   ar
    21    26    27   ar
    22     4     5   ar
    23     5     6   ar
    24     6     7   ar
    25     7     8   ar
    26     8     9   ar
    27    16    11   ar
    28     9     1   ar
    29     8     3    1
    30    27    22   ar
    31    19    20    1
    32    29    30    1
    33     7    10    1
@<TRIPOS>MOLECULE
*****
 30 33 0 0 0
SMALL
GASTEIGER

@<TRIPOS>ATOM
      1 C         139.5632  140.1010  165.8381 C.ar    1  UNL1        0.0860
      2 C         140.6079  139.3199  165.0975 C.ar    1  UNL1        0.0250
      3 C         140.0160  138.8751  163.7929 C.ar    1  UNL1        0.0668
      4 C         140.5792  138.0745  162.6563 C.ar    1  UNL1        0.1333
      5 N         139.7319  137.7800  161.4541 N.ar    1  UNL1       -0.2108
      6 C         138.3214  138.2861  161.3885 C.ar    1  UNL1        0.1773
      7 N         137.7582  139.0867  162.5251 N.ar    1  UNL1       -0.3214
      8 C         138.6055  139.3812  163.7273 C.ar    1  UNL1        0.1443
      9 N         138.3256  140.1388  164.9913 N.ar    1  UNL1       -0.2283
     10 H         136.8324  139.4189  162.4820 H       1  UNL1        0.1689
     11 C         140.3583  142.0885  167.3104 C.ar    1  UNL1        0.1401
     12 C         140.5223  142.7208  168.6606 C.ar    1  UNL1        0.0369
     13 C         140.0552  141.9978  169.8890 C.ar    1  UNL1        0.0031
     14 C         139.4241  140.6425  169.7671 C.ar    1  UNL1        0.0002
     15 C         139.2601  140.0102  168.4169 C.ar    1  UNL1        0.0045
     16 C         139.7272  140.7332  167.1885 C.ar    1  UNL1        0.0517
     17 C         139.8839  143.7114  165.3377 C.3     1  UNL1        0.2525
     18 O         140.8254  142.8116  166.0819 O.3     1  UNL1       -0.4714
     19 N         141.9897  137.5684  162.7220 N.pl3   1  UNL1       -0.3139
     20 H         142.2211  136.8338  163.3353 H       1  UNL1        0.1485
     21 CA        143.0477  138.1815  161.8532 C.3     1  UNL1        0.1227
     22 C         143.8793  139.3168  162.3722 C.ar    1  UNL1       -0.0021
     23 C         144.1213  140.5229  161.5138 C.ar    1  UNL1       -0.0026
     24 C         144.9529  141.6582  162.0328 C.ar    1  UNL1       -0.0003
     25 C         145.5426  141.5875  163.4102 C.ar    1  UNL1       -0.0000
     26 C         145.3006  140.3815  164.2686 C.ar    1  UNL1       -0.0003
     27 C         144.4690  139.2461  163.7496 C.ar    1  UNL1       -0.0026
     28 C         143.2741  137.6592  160.4653 C.3     1  UNL1        0.1611
     29 O         142.2755  137.9470  159.3836 O.3     1  UNL1       -0.3799
     30 H         141.4384  137.5025  159.5898 H       1  UNL1        0.2105
@<TRIPOS>BOND
     1    17    18    1
     2    18    11    1
     3    11    12   ar
     4    12    13   ar
     5    13    14   ar
     6    14    15   ar
     7    15    16   ar
     8    16     1    1
     9     1     2   ar
    10     2     3   ar
    11     3     4   ar
    12     4    19    1
    13    19    21    1
    14    21    28    1
    15    28    29    1
    16    21    22    1
    17    22    23   ar
    18    23    24   ar
    19    24    25   ar
    20    25    26   ar
    21    26    27   ar
    22     4     5   ar
    23     5     6   ar
    24     6     7   ar
    25     7     8   ar
    26     8     9   ar
    27    16    11   ar
    28     9     1   ar
    29     8     3    1
    30    27    22   ar
    31    19    20    1
    32    29    30    1
    33     7    10    1
@<TRIPOS>MOLECULE
*****
 30 33 0 0 0
SMALL
GASTEIGER

@<TRIPOS>ATOM
      1 C         143.1969  141.8539  165.8426 C.ar    1  UNL1        0.0860
      2 C         142.6843  143.0397  165.0803 C.ar    1  UNL1        0.0250
      3 C         143.3133  143.0225  163.7186 C.ar    1  UNL1        0.0668
      4 C         143.1817  143.9417  162.5406 C.ar    1  UNL1        0.1333
      5 N         143.9514  143.6646  161.2833 N.ar    1  UNL1       -0.2108
      6 C         144.8526  142.4681  161.2040 C.ar    1  UNL1        0.1773
      7 N         144.9841  141.5489  162.3820 N.ar    1  UNL1       -0.3214
      8 C         144.2145  141.8261  163.6393 C.ar    1  UNL1        0.1443
      9 N         144.1426  141.1038  164.9520 N.ar    1  UNL1       -0.2283
     10 H         145.5757  140.7636  162.3300 H       1  UNL1        0.1689
     11 C         142.0512  140.2281  167.5141 C.ar    1  UNL1        0.1401
     12 C         141.6827  139.8573  168.9201 C.ar    1  UNL1        0.0369
     13 C         142.0917  140.7417  170.0605 C.ar    1  UNL1        0.0031
     14 C         142.8690  141.9968  169.7950 C.ar    1  UNL1        0.0002
     15 C         143.2374  142.3675  168.3891 C.ar    1  UNL1        0.0045
     16 C         142.8285  141.4832  167.2486 C.ar    1  UNL1        0.0517
     17 C         140.2805  139.4902  165.7619 C.3     1  UNL1        0.2525
     18 O         141.6423  139.3437  166.3736 O.3     1  UNL1       -0.4714
     19 N         142.2805  145.1382  162.6199 N.pl3   1  UNL1       -0.3139
     20 H         142.6004  145.9684  163.0413 H       1  UNL1        0.1485
     21 CA        140.8917  145.0697  162.0571 C.3     1  UNL1        0.1227
     22 C         139.7634  144.5609  162.9043 C.ar    1  UNL1       -0.0021
     23 C         139.6344  145.0096  164.3299 C.ar    1  UNL1       -0.0026
     24 C         138.5061  144.5009  165.1772 C.ar    1  UNL1       -0.0003
     25 C         137.5066  143.5434  164.5989 C.ar    1  UNL1       -0.0000
     26 C         137.6355  143.0947  163.1735 C.ar    1  UNL1       -0.0003
     27 C         138.7639  143.6035  162.3261 C.ar    1  UNL1       -0.0026
     28 C         140.6314  145.5100  160.6469 C.3     1  UNL1        0.1611
     29 O         141.7584  145.5661  159.6586 O.3     1  UNL1       -0.3799
     30 H         142.3910  146.2502  159.9281 H       1  UNL1        0.2105
@<TRIPOS>BOND
     1    17    18    1
     2    18    11    1
     3    11    12   ar
     4    12    13   ar
     5    13    14   ar
     6    14    15   ar
     7    15    16   ar
     8    16     1    1
     9     1     2   ar
    10     2     3   ar
    11     3     4   ar
    12     4    19    1
    13    19    21    1
    14    21    28    1
    15    28    29    1
    16    21    22    1
    17    22    23   ar
    18    23    24   ar
    19    24    25   ar
    20    25    26   ar
    21    26    27   ar
    22     4     5   ar
    23     5     6   ar
    24     6     7   ar
    25     7     8   ar
    26     8     9   ar
    27    16    11   ar
    28     9     1   ar
    29     8     3    1
    30    27    22   ar
    31    19    20    1
    32    29    30    1
    33     7    10    1
@<TRIPOS>MOLECULE
*****
 30 33 0 0 0
SMALL
GASTEIGER

@<TRIPOS>ATOM
      1 C         142.2662  141.7487  165.9334 C.ar    1  UNL1        0.0860
      2 C         141.9774  142.9670  165.1074 C.ar    1  UNL1        0.0250
      3 C         142.9323  142.9797  163.9506 C.ar    1  UNL1        0.0668
      4 C         143.1150  143.9371  162.8104 C.ar    1  UNL1        0.1333
      5 N         144.1765  143.6841  161.7814 N.ar    1  UNL1       -0.2108
      6 C         145.0555  142.4737  161.8925 C.ar    1  UNL1        0.1773
      7 N         144.8728  141.5163  163.0327 N.ar    1  UNL1       -0.3214
      8 C         143.8112  141.7693  164.0617 C.ar    1  UNL1        0.1443
      9 N         143.3995  141.0085  165.2871 N.ar    1  UNL1       -0.2283
     10 H         145.4497  140.7219  163.1056 H       1  UNL1        0.1689
     11 C         142.0821  141.7559  168.5250 C.ar    1  UNL1        0.1401
     12 C         141.3638  141.3492  169.7774 C.ar    1  UNL1        0.0369
     13 C         140.1111  140.5287  169.6907 C.ar    1  UNL1        0.0031
     14 C         139.5768  140.1148  168.3516 C.ar    1  UNL1        0.0002
     15 C         140.2951  140.5215  167.0991 C.ar    1  UNL1        0.0045
     16 C         141.5478  141.3420  167.1859 C.ar    1  UNL1        0.0517
     17 C         144.1623  142.5520  169.8625 C.3     1  UNL1        0.2525
     18 O         143.3348  142.5764  168.6116 O.3     1  UNL1       -0.4714
     19 N         142.2360  145.1476  162.6993 N.pl3   1  UNL1       -0.3139
     20 H         142.5509  146.0172  163.0364 H       1  UNL1        0.1485
     21 CA        140.8771  145.0329  162.0745 C.3     1  UNL1        0.1227
     22 C         139.7275  144.4939  162.8731 C.ar    1  UNL1       -0.0021
     23 C         138.8617  143.4094  162.3036 C.ar    1  UNL1       -0.0026
     24 C         137.7121  142.8704  163.1022 C.ar    1  UNL1       -0.0003
     25 C         137.4282  143.4158  164.4704 C.ar    1  UNL1       -0.0000
     26 C         138.2940  144.5002  165.0399 C.ar    1  UNL1       -0.0003
     27 C         139.4436  145.0393  164.2413 C.ar    1  UNL1       -0.0026
     28 C         140.6679  145.4572  160.6510 C.3     1  UNL1        0.1611
     29 O         141.8409  145.5760  159.7237 O.3     1  UNL1       -0.3799
     30 H         142.4190  146.2946  160.0240 H       1  UNL1        0.2105
@<TRIPOS>BOND
     1    17    18    1
     2    18    11    1
     3    11    12   ar
     4    12    13   ar
     5    13    14   ar
     6    14    15   ar
     7    15    16   ar
     8    16     1    1
     9     1     2   ar
    10     2     3   ar
    11     3     4   ar
    12     4    19    1
    13    19    21    1
    14    21    28    1
    15    28    29    1
    16    21    22    1
    17    22    23   ar
    18    23    24   ar
    19    24    25   ar
    20    25    26   ar
    21    26    27   ar
    22     4     5   ar
    23     5     6   ar
    24     6     7   ar
    25     7     8   ar
    26     8     9   ar
    27    16    11   ar
    28     9     1   ar
    29     8     3    1
    30    27    22   ar
    31    19    20    1
    32    29    30    1
    33     7    10    1
@<TRIPOS>MOLECULE
*****
 30 33 0 0 0
SMALL
GASTEIGER

@<TRIPOS>ATOM
      1 C         139.9416  141.5759  166.6870 C.ar    1  UNL1        0.0860
      2 C         139.0460  140.9724  165.6460 C.ar    1  UNL1        0.0250
      3 C         138.6844  142.0484  164.6654 C.ar    1  UNL1        0.0668
      4 C         137.8300  142.0370  163.4325 C.ar    1  UNL1        0.1333
      5 N         137.6477  143.2940  162.6347 N.ar    1  UNL1       -0.2108
      6 C         138.3197  144.5625  163.0697 C.ar    1  UNL1        0.1773
      7 N         139.1741  144.5739  164.3025 N.ar    1  UNL1       -0.3214
      8 C         139.3565  143.3169  165.1004 C.ar    1  UNL1        0.1443
      9 N         140.1335  143.0249  166.3498 N.ar    1  UNL1       -0.2283
     10 H         139.6152  145.4065  164.5880 H       1  UNL1        0.1689
     11 C         141.9264  140.2915  167.7645 C.ar    1  UNL1        0.1401
     12 C         142.5250  139.5723  168.9368 C.ar    1  UNL1        0.0369
     13 C         141.7374  139.4184  170.2041 C.ar    1  UNL1        0.0031
     14 C         140.3513  139.9837  170.2990 C.ar    1  UNL1        0.0002
     15 C         139.7526  140.7028  169.1267 C.ar    1  UNL1        0.0045
     16 C         140.5402  140.8567  167.8594 C.ar    1  UNL1        0.0517
     17 C         143.2227  139.2312  165.7782 C.3     1  UNL1        0.2525
     18 O         142.7139  140.4454  166.4971 O.3     1  UNL1       -0.4714
     19 N         137.1579  140.7684  162.9976 N.pl3   1  UNL1       -0.3139
     20 H         136.2497  140.5589  163.3144 H       1  UNL1        0.1485
     21 CA        137.8698  139.8191  162.0799 C.3     1  UNL1        0.1227
     22 C         138.9362  138.9125  162.6190 C.ar    1  UNL1       -0.0021
     23 C         140.1975  138.6908  161.8380 C.ar    1  UNL1       -0.0026
     24 C         141.2639  137.7842  162.3771 C.ar    1  UNL1       -0.0003
     25 C         141.0691  137.0991  163.6972 C.ar    1  UNL1       -0.0000
     26 C         139.8078  137.3207  164.4782 C.ar    1  UNL1       -0.0003
     27 C         138.7413  138.2274  163.9391 C.ar    1  UNL1       -0.0026
     28 C         137.5151  139.7766  160.6229 C.3     1  UNL1        0.1611
     29 O         136.0934  139.5468  160.2035 O.3     1  UNL1       -0.3799
     30 H         135.8201  138.6531  160.4633 H       1  UNL1        0.2105
@<TRIPOS>BOND
     1    17    18    1
     2    18    11    1
     3    11    12   ar
     4    12    13   ar
     5    13    14   ar
     6    14    15   ar
     7    15    16   ar
     8    16     1    1
     9     1     2   ar
    10     2     3   ar
    11     3     4   ar
    12     4    19    1
    13    19    21    1
    14    21    28    1
    15    28    29    1
    16    21    22    1
    17    22    23   ar
    18    23    24   ar
    19    24    25   ar
    20    25    26   ar
    21    26    27   ar
    22     4     5   ar
    23     5     6   ar
    24     6     7   ar
    25     7     8   ar
    26     8     9   ar
    27    16    11   ar
    28     9     1   ar
    29     8     3    1
    30    27    22   ar
    31    19    20    1
    32    29    30    1
    33     7    10    1
@<TRIPOS>MOLECULE
*****
 30 33 0 0 0
SMALL
GASTEIGER

@<TRIPOS>ATOM
      1 C         140.3691  141.7838  166.6316 C.ar    1  UNL1        0.0860
      2 C         139.3738  141.2076  165.6685 C.ar    1  UNL1        0.0250
      3 C         138.9355  142.3042  164.7435 C.ar    1  UNL1        0.0668
      4 C         137.9704  142.3229  163.5954 C.ar    1  UNL1        0.1333
      5 N         137.7297  143.5954  162.8386 N.ar    1  UNL1       -0.2108
      6 C         138.4541  144.8492  163.2300 C.ar    1  UNL1        0.1773
      7 N         139.4192  144.8305  164.3781 N.ar    1  UNL1       -0.3214
      8 C         139.6599  143.5579  165.1349 C.ar    1  UNL1        0.1443
      9 N         140.5459  143.2363  166.3017 N.ar    1  UNL1       -0.2283
     10 H         139.8947  145.6534  164.6350 H       1  UNL1        0.1689
     11 C         140.8219  141.4140  169.1630 C.ar    1  UNL1        0.1401
     12 C         141.5181  140.6685  170.2628 C.ar    1  UNL1        0.0369
     13 C         142.4577  139.5474  169.9310 C.ar    1  UNL1        0.0031
     14 C         142.7010  139.1716  168.4993 C.ar    1  UNL1        0.0002
     15 C         142.0048  139.9171  167.3995 C.ar    1  UNL1        0.0045
     16 C         141.0653  141.0382  167.7314 C.ar    1  UNL1        0.0517
     17 C         140.4216  143.9043  169.7862 C.3     1  UNL1        0.2525
     18 O         139.8823  142.5352  169.4948 O.3     1  UNL1       -0.4714
     19 N         137.2460  141.0690  163.2040 N.pl3   1  UNL1       -0.3139
     20 H         136.3274  140.9117  163.5215 H       1  UNL1        0.1485
     21 CA        137.9211  140.0548  162.3290 C.3     1  UNL1        0.1227
     22 C         138.9872  139.1654  162.8968 C.ar    1  UNL1       -0.0021
     23 C         138.6848  138.2927  164.0789 C.ar    1  UNL1       -0.0026
     24 C         139.7509  137.4033  164.6466 C.ar    1  UNL1       -0.0003
     25 C         141.1193  137.3864  164.0324 C.ar    1  UNL1       -0.0000
     26 C         141.4216  138.2590  162.8504 C.ar    1  UNL1       -0.0003
     27 C         140.3555  139.1485  162.2826 C.ar    1  UNL1       -0.0026
     28 C         137.5302  139.9301  160.8862 C.3     1  UNL1        0.1611
     29 O         136.3138  139.1397  160.5044 O.3     1  UNL1       -0.3799
     30 H         136.4570  138.2038  160.7152 H       1  UNL1        0.2105
@<TRIPOS>BOND
     1    17    18    1
     2    18    11    1
     3    11    12   ar
     4    12    13   ar
     5    13    14   ar
     6    14    15   ar
     7    15    16   ar
     8    16     1    1
     9     1     2   ar
    10     2     3   ar
    11     3     4   ar
    12     4    19    1
    13    19    21    1
    14    21    28    1
    15    28    29    1
    16    21    22    1
    17    22    23   ar
    18    23    24   ar
    19    24    25   ar
    20    25    26   ar
    21    26    27   ar
    22     4     5   ar
    23     5     6   ar
    24     6     7   ar
    25     7     8   ar
    26     8     9   ar
    27    16    11   ar
    28     9     1   ar
    29     8     3    1
    30    27    22   ar
    31    19    20    1
    32    29    30    1
    33     7    10    1
@<TRIPOS>MOLECULE
*****
 30 33 0 0 0
SMALL
GASTEIGER

@<TRIPOS>ATOM
      1 C         140.1743  141.5205  166.7268 C.ar    1  UNL1        0.0860
      2 C         140.1301  142.7758  165.9069 C.ar    1  UNL1        0.0250
      3 C         139.1389  142.5715  164.7997 C.ar    1  UNL1        0.0668
      4 C         138.6805  143.4650  163.6855 C.ar    1  UNL1        0.1333
      5 N         137.6538  142.9770  162.7069 N.ar    1  UNL1       -0.2108
      6 C         137.0855  141.5955  162.8425 C.ar    1  UNL1        0.1773
      7 N         137.5439  140.7020  163.9567 N.ar    1  UNL1       -0.3214
      8 C         138.5707  141.1900  164.9353 C.ar    1  UNL1        0.1443
      9 N         139.2105  140.5404  166.1263 N.ar    1  UNL1       -0.2283
     10 H         137.1709  139.7952  164.0457 H       1  UNL1        0.1689
     11 C         140.5180  140.4487  169.0685 C.ar    1  UNL1        0.1401
     12 C         141.3754  140.2145  170.2767 C.ar    1  UNL1        0.0369
     13 C         142.7466  140.8179  170.3517 C.ar    1  UNL1        0.0031
     14 C         143.2604  141.6555  169.2184 C.ar    1  UNL1        0.0002
     15 C         142.4030  141.8897  168.0101 C.ar    1  UNL1        0.0045
     16 C         141.0318  141.2863  167.9351 C.ar    1  UNL1        0.0517
     17 C         138.2141  139.9549  170.1631 C.3     1  UNL1        0.2525
     18 O         139.1467  139.8452  168.9935 O.3     1  UNL1       -0.4714
     19 N         139.2489  144.8466  163.5499 N.pl3   1  UNL1       -0.3139
     20 H         138.8636  145.5903  164.0672 H       1  UNL1        0.1485
     21 CA        140.4042  145.0949  162.6261 C.3     1  UNL1        0.1227
     22 C         141.7457  144.4938  162.9244 C.ar    1  UNL1       -0.0021
     23 C         142.6410  145.1279  163.9473 C.ar    1  UNL1       -0.0026
     24 C         143.9825  144.5268  164.2457 C.ar    1  UNL1       -0.0003
     25 C         144.4287  143.2915  163.5211 C.ar    1  UNL1       -0.0000
     26 C         143.5335  142.6574  162.4982 C.ar    1  UNL1       -0.0003
     27 C         142.1919  143.2585  162.1998 C.ar    1  UNL1       -0.0026
     28 C         140.2181  145.9444  161.4038 C.3     1  UNL1        0.1611
     29 O         138.9309  146.6857  161.1947 O.3     1  UNL1       -0.3799
     30 H         138.2099  146.0506  161.0623 H       1  UNL1        0.2105
@<TRIPOS>BOND
     1    17    18    1
     2    18    11    1
     3    11    12   ar
     4    12    13   ar
     5    13    14   ar
     6    14    15   ar
     7    15    16   ar
     8    16     1    1
     9     1     2   ar
    10     2     3   ar
    11     3     4   ar
    12     4    19    1
    13    19    21    1
    14    21    28    1
    15    28    29    1
    16    21    22    1
    17    22    23   ar
    18    23    24   ar
    19    24    25   ar
    20    25    26   ar
    21    26    27   ar
    22     4     5   ar
    23     5     6   ar
    24     6     7   ar
    25     7     8   ar
    26     8     9   ar
    27    16    11   ar
    28     9     1   ar
    29     8     3    1
    30    27    22   ar
    31    19    20    1
    32    29    30    1
    33     7    10    1
@<TRIPOS>MOLECULE
*****
 30 33 0 0 0
SMALL
GASTEIGER

@<TRIPOS>ATOM
      1 C         142.3979  140.9238  166.8405 C.ar    1  UNL1        0.0860
      2 C         142.8398  139.8930  165.8445 C.ar    1  UNL1        0.0250
      3 C         143.7037  140.5742  164.8248 C.ar    1  UNL1        0.0668
      4 C         144.4185  140.0600  163.6104 C.ar    1  UNL1        0.1333
      5 N         145.2252  140.9976  162.7618 N.ar    1  UNL1       -0.2108
      6 C         145.3172  142.4493  163.1277 C.ar    1  UNL1        0.1773
      7 N         144.6024  142.9635  164.3421 N.ar    1  UNL1       -0.3214
      8 C         143.7957  142.0260  165.1906 C.ar    1  UNL1        0.1443
      9 N         142.9887  142.2420  166.4364 N.ar    1  UNL1       -0.2283
     10 H         144.6628  143.9164  164.5822 H       1  UNL1        0.1689
     11 C         142.0992  140.7302  169.4141 C.ar    1  UNL1        0.1401
     12 C         141.2208  140.4858  170.6052 C.ar    1  UNL1        0.0369
     13 C         139.7627  140.1905  170.4137 C.ar    1  UNL1        0.0031
     14 C         139.1830  140.1397  169.0312 C.ar    1  UNL1        0.0002
     15 C         140.0614  140.3841  167.8401 C.ar    1  UNL1        0.0045
     16 C         141.5195  140.6794  168.0316 C.ar    1  UNL1        0.0517
     17 C         144.0053  142.4235  169.9136 C.3     1  UNL1        0.2525
     18 O         143.5574  141.0255  169.6055 O.3     1  UNL1       -0.4714
     19 N         144.3265  138.6082  163.2445 N.pl3   1  UNL1       -0.3139
     20 H         144.9338  137.9557  163.6625 H       1  UNL1        0.1485
     21 CA        143.3091  138.1504  162.2419 C.3     1  UNL1        0.1227
     22 C         141.8776  137.9731  162.6533 C.ar    1  UNL1       -0.0021
     23 C         140.7765  138.2308  161.6678 C.ar    1  UNL1       -0.0026
     24 C         139.3450  138.0534  162.0793 C.ar    1  UNL1       -0.0003
     25 C         139.0145  137.6183  163.4762 C.ar    1  UNL1       -0.0000
     26 C         140.1156  137.3606  164.4617 C.ar    1  UNL1       -0.0003
     27 C         141.5471  137.5380  164.0503 C.ar    1  UNL1       -0.0026
     28 C         143.7232  137.8701  160.8276 C.3     1  UNL1        0.1611
     29 O         144.1016  139.0016  159.9186 O.3     1  UNL1       -0.3799
     30 H         143.3239  139.5572  159.7529 H       1  UNL1        0.2105
@<TRIPOS>BOND
     1    17    18    1
     2    18    11    1
     3    11    12   ar
     4    12    13   ar
     5    13    14   ar
     6    14    15   ar
     7    15    16   ar
     8    16     1    1
     9     1     2   ar
    10     2     3   ar
    11     3     4   ar
    12     4    19    1
    13    19    21    1
    14    21    28    1
    15    28    29    1
    16    21    22    1
    17    22    23   ar
    18    23    24   ar
    19    24    25   ar
    20    25    26   ar
    21    26    27   ar
    22     4     5   ar
    23     5     6   ar
    24     6     7   ar
    25     7     8   ar
    26     8     9   ar
    27    16    11   ar
    28     9     1   ar
    29     8     3    1
    30    27    22   ar
    31    19    20    1
    32    29    30    1
    33     7    10    1
@<TRIPOS>MOLECULE
*****
 30 33 0 0 0
SMALL
GASTEIGER

@<TRIPOS>ATOM
      1 C         142.5370  140.6023  166.4788 C.ar    1  UNL1        0.0860
      2 C         142.6699  139.6117  165.3604 C.ar    1  UNL1        0.0250
      3 C         143.5257  140.2286  164.2940 C.ar    1  UNL1        0.0668
      4 C         143.9955  139.7183  162.9640 C.ar    1  UNL1        0.1333
      5 N         144.8614  140.5798  162.0934 N.ar    1  UNL1       -0.2108
      6 C         145.2575  141.9516  162.5529 C.ar    1  UNL1        0.1773
      7 N         144.7877  142.4619  163.8829 N.ar    1  UNL1       -0.3214
      8 C         143.9218  141.6004  164.7534 C.ar    1  UNL1        0.1443
      9 N         143.3108  141.8314  166.1037 N.ar    1  UNL1       -0.2283
     10 H         145.0477  143.3623  164.1844 H       1  UNL1        0.1689
     11 C         140.2759  140.5726  167.7580 C.ar    1  UNL1        0.1401
     12 C         139.5047  140.3698  169.0285 C.ar    1  UNL1        0.0369
     13 C         140.2235  139.9940  170.2903 C.ar    1  UNL1        0.0031
     14 C         141.7134  139.8210  170.2816 C.ar    1  UNL1        0.0002
     15 C         142.4846  140.0238  169.0111 C.ar    1  UNL1        0.0045
     16 C         141.7659  140.3996  167.7494 C.ar    1  UNL1        0.0517
     17 C         138.6207  139.9725  165.8474 C.3     1  UNL1        0.2525
     18 O         139.5571  140.9483  166.4962 O.3     1  UNL1       -0.4714
     19 N         143.5994  138.3464  162.5046 N.pl3   1  UNL1       -0.3139
     20 H         143.9735  137.5514  162.9487 H       1  UNL1        0.1485
     21 CA        142.6332  138.1858  161.3685 C.3     1  UNL1        0.1227
     22 C         141.1583  138.1441  161.6384 C.ar    1  UNL1       -0.0021
     23 C         140.1929  138.6541  160.6098 C.ar    1  UNL1       -0.0026
     24 C         138.7180  138.6124  160.8797 C.ar    1  UNL1       -0.0003
     25 C         138.2085  138.0609  162.1782 C.ar    1  UNL1       -0.0000
     26 C         139.1738  137.5510  163.2068 C.ar    1  UNL1       -0.0003
     27 C         140.6488  137.5926  162.9369 C.ar    1  UNL1       -0.0026
     28 C         143.1420  138.0668  159.9624 C.3     1  UNL1        0.1611
     29 O         144.0064  139.1475  159.3836 O.3     1  UNL1       -0.3799
     30 H         143.4904  139.9647  159.3010 H       1  UNL1        0.2105
@<TRIPOS>BOND
     1    17    18    1
     2    18    11    1
     3    11    12   ar
     4    12    13   ar
     5    13    14   ar
     6    14    15   ar
     7    15    16   ar
     8    16     1    1
     9     1     2   ar
    10     2     3   ar
    11     3     4   ar
    12     4    19    1
    13    19    21    1
    14    21    28    1
    15    28    29    1
    16    21    22    1
    17    22    23   ar
    18    23    24   ar
    19    24    25   ar
    20    25    26   ar
    21    26    27   ar
    22     4     5   ar
    23     5     6   ar
    24     6     7   ar
    25     7     8   ar
    26     8     9   ar
    27    16    11   ar
    28     9     1   ar
    29     8     3    1
    30    27    22   ar
    31    19    20    1
    32    29    30    1
    33     7    10    1
