@<TRIPOS>MOLECULE
*****
 29 33 0 0 0
SMALL
GASTEIGER

@<TRIPOS>ATOM
      1 C         144.2090  139.9281  161.6588 C.3     1  UNL1        0.0294
      2 C         144.1883  139.8413  163.1561 C.3     1  UNL1        0.0666
      3 S         143.0762  139.1118  163.8498 S.3     1  UNL1       -0.0756
      4 C         142.5023  139.5006  167.6687 C.ar    1  UNL1        0.2029
      5 N         143.4891  138.3713  167.6374 N.ar    1  UNL1       -0.1250
      6 N         143.8241  138.0882  166.2031 N.ar    1  UNL1       -0.1220
      7 C         143.0445  139.0425  165.3479 C.ar    1  UNL1        0.1933
      8 N         142.2276  139.9154  166.2538 N.ar    1  UNL1       -0.2860
      9 C         141.2989  141.0109  165.8205 C.3     1  UNL1        0.1341
     10 C         143.3513  142.3477  169.0189 C.3     1  UNL1        0.0556
     11 C         142.2868  141.4170  169.5197 C.ar    1  UNL1        0.1001
     12 N         141.4258  141.6315  170.7291 N.ar    1  UNL1       -0.2085
     13 C         140.5034  140.4555  170.8559 C.ar    1  UNL1        0.2849
     14 O         140.7944  139.5141  169.7250 O.2     1  UNL1       -0.4283
     15 C         141.8966  140.1084  168.8992 C.ar    1  UNL1        0.1964
     16 C         143.7917  141.1964  160.9752 C.3     1  UNL1        0.0730
     17 N         143.3749  142.3852  161.7894 N.3     1  UNL1       -0.2724
     18 C         144.2540  143.5338  162.1867 C.3     1  UNL1        0.0724
     19 C         143.4282  144.4926  162.9922 C.3     1  UNL1        0.0214
     20 C         142.3724  145.2440  163.7476 C.3     1  UNL1        0.0072
     21 C         142.0387  143.9365  163.0928 C.3     1  UNL1        0.0350
     22 C         142.0058  142.6341  162.3494 C.3     1  UNL1        0.0761
     23 C         140.5998  143.9120  163.5158 C.ar    1  UNL1       -0.0192
     24 C         139.6135  143.0621  162.7710 C.ar    1  UNL1       -0.0041
     25 C         138.1745  143.0375  163.1941 C.ar    1  UNL1        0.0020
     26 C         137.7220  143.8630  164.3619 C.ar    1  UNL1        0.0296
     27 C         138.7084  144.7130  165.1067 C.ar    1  UNL1        0.1398
     28 F         138.2558  145.5385  166.2746 F       1  UNL1       -0.2042
     29 C         140.1473  144.7375  164.6837 C.ar    1  UNL1        0.0254
@<TRIPOS>BOND
     1    10    11    1
     2    11    12   ar
     3    12    13   ar
     4    13    14   ar
     5    14    15   ar
     6    15     4    1
     7     4     5   ar
     8     5     6   ar
     9     6     7   ar
    10     7     3    1
    11     3     2    1
    12     2     1    1
    13     1    16    1
    14    16    17    1
    15    17    18    1
    16    18    19    1
    17    19    20    1
    18    20    21    1
    19    21    23    1
    20    23    24   ar
    21    24    25   ar
    22    25    26   ar
    23    26    27   ar
    24    27    28    1
    25    27    29   ar
    26    21    22    1
    27     7     8   ar
    28     8     9    1
    29    15    11   ar
    30     8     4   ar
    31    22    17    1
    32    21    19    1
    33    29    23   ar
@<TRIPOS>MOLECULE
*****
 29 33 0 0 0
SMALL
GASTEIGER

@<TRIPOS>ATOM
      1 C         140.6863  144.7891  161.0786 C.3     1  UNL1        0.0294
      2 C         140.1384  145.4907  162.2859 C.3     1  UNL1        0.0666
      3 S         138.8314  145.0539  162.8785 S.3     1  UNL1       -0.0756
      4 C         138.2354  141.2663  163.4816 C.ar    1  UNL1        0.2029
      5 N         137.4841  141.4776  162.2006 N.ar    1  UNL1       -0.1250
      6 N         137.6159  142.9221  161.8188 N.ar    1  UNL1       -0.1220
      7 C         138.4487  143.6036  162.8638 C.ar    1  UNL1        0.1933
      8 N         138.8316  142.5802  163.8914 N.ar    1  UNL1       -0.2860
      9 C         139.6645  142.8275  165.1142 C.3     1  UNL1        0.1341
     10 C         139.1646  138.4120  162.2012 C.3     1  UNL1        0.0556
     11 C         138.7945  138.6569  163.6341 C.ar    1  UNL1        0.1001
     12 N         138.7865  137.6327  164.7300 N.ar    1  UNL1       -0.2085
     13 C         138.3545  138.3117  165.9958 C.ar    1  UNL1        0.2849
     14 O         138.0955  139.7554  165.6822 O.2     1  UNL1       -0.4283
     15 C         138.3674  139.9687  164.2226 C.ar    1  UNL1        0.1964
     16 C         142.0978  144.2815  161.0822 C.3     1  UNL1        0.0730
     17 N         142.8133  144.0643  162.3825 N.3     1  UNL1       -0.2724
     18 C         143.4729  145.1245  163.2138 C.3     1  UNL1        0.0724
     19 C         144.0622  144.4641  164.4249 C.3     1  UNL1        0.0214
     20 C         144.5341  143.5419  165.5096 C.3     1  UNL1        0.0072
     21 C         143.7668  142.9959  164.3422 C.3     1  UNL1        0.0350
     22 C         142.9950  142.7488  163.0799 C.3     1  UNL1        0.0761
     23 C         143.7880  141.5662  164.7954 C.ar    1  UNL1       -0.0192
     24 C         144.7506  140.5971  164.1756 C.ar    1  UNL1       -0.0041
     25 C         144.7718  139.1673  164.6289 C.ar    1  UNL1        0.0020
     26 C         143.8304  138.7067  165.7020 C.ar    1  UNL1        0.0296
     27 C         142.8677  139.6758  166.3218 C.ar    1  UNL1        0.1398
     28 F         141.9262  139.2152  167.3949 F       1  UNL1       -0.2042
     29 C         142.8465  141.1055  165.8685 C.ar    1  UNL1        0.0254
@<TRIPOS>BOND
     1    10    11    1
     2    11    12   ar
     3    12    13   ar
     4    13    14   ar
     5    14    15   ar
     6    15     4    1
     7     4     5   ar
     8     5     6   ar
     9     6     7   ar
    10     7     3    1
    11     3     2    1
    12     2     1    1
    13     1    16    1
    14    16    17    1
    15    17    18    1
    16    18    19    1
    17    19    20    1
    18    20    21    1
    19    21    23    1
    20    23    24   ar
    21    24    25   ar
    22    25    26   ar
    23    26    27   ar
    24    27    28    1
    25    27    29   ar
    26    21    22    1
    27     7     8   ar
    28     8     9    1
    29    15    11   ar
    30     8     4   ar
    31    22    17    1
    32    21    19    1
    33    29    23   ar
@<TRIPOS>MOLECULE
*****
 29 33 0 0 0
SMALL
GASTEIGER

@<TRIPOS>ATOM
      1 C         143.0809  138.9931  162.1232 C.3     1  UNL1        0.0294
      2 C         144.2509  139.6838  162.7588 C.3     1  UNL1        0.0666
      3 S         144.4437  139.6182  164.2450 S.3     1  UNL1       -0.0756
      4 C         142.9721  142.0710  166.8685 C.ar    1  UNL1        0.2029
      5 N         143.7584  143.0102  166.0027 N.ar    1  UNL1       -0.1250
      6 N         144.4053  142.2057  164.9146 N.ar    1  UNL1       -0.1220
      7 C         144.0189  140.7693  165.1079 C.ar    1  UNL1        0.1933
      8 N         143.1331  140.6861  166.3155 N.ar    1  UNL1       -0.2860
      9 C         142.5165  139.4371  166.8723 C.3     1  UNL1        0.1341
     10 C         144.1186  142.4428  169.9012 C.3     1  UNL1        0.0556
     11 C         142.6932  142.6211  169.4694 C.ar    1  UNL1        0.1001
     12 N         141.5445  143.0017  170.3559 N.ar    1  UNL1       -0.2085
     13 C         140.3076  143.0660  169.5098 C.ar    1  UNL1        0.2849
     14 O         140.6918  142.7252  168.1005 O.2     1  UNL1       -0.4283
     15 C         142.1662  142.4503  168.0756 C.ar    1  UNL1        0.1964
     16 C         142.2058  138.0921  162.9430 C.3     1  UNL1        0.0730
     17 N         141.0129  138.6532  163.6587 N.3     1  UNL1       -0.2724
     18 C         139.9660  137.8603  164.3834 C.3     1  UNL1        0.0724
     19 C         138.9635  138.8228  164.9479 C.3     1  UNL1        0.0214
     20 C         138.1442  140.0027  165.3797 C.3     1  UNL1        0.0072
     21 C         139.3909  140.2107  164.5720 C.3     1  UNL1        0.0350
     22 C         140.6575  140.1058  163.7752 C.3     1  UNL1        0.0761
     23 C         139.2961  141.7068  164.5197 C.ar    1  UNL1       -0.0192
     24 C         137.9563  142.3765  164.5984 C.ar    1  UNL1       -0.0041
     25 C         137.8614  143.8727  164.5461 C.ar    1  UNL1        0.0020
     26 C         139.1065  144.6990  164.4151 C.ar    1  UNL1        0.0296
     27 C         140.4464  144.0291  164.3363 C.ar    1  UNL1        0.1398
     28 F         141.6914  144.8554  164.2052 F       1  UNL1       -0.2042
     29 C         140.5411  142.5330  164.3886 C.ar    1  UNL1        0.0254
@<TRIPOS>BOND
     1    10    11    1
     2    11    12   ar
     3    12    13   ar
     4    13    14   ar
     5    14    15   ar
     6    15     4    1
     7     4     5   ar
     8     5     6   ar
     9     6     7   ar
    10     7     3    1
    11     3     2    1
    12     2     1    1
    13     1    16    1
    14    16    17    1
    15    17    18    1
    16    18    19    1
    17    19    20    1
    18    20    21    1
    19    21    23    1
    20    23    24   ar
    21    24    25   ar
    22    25    26   ar
    23    26    27   ar
    24    27    28    1
    25    27    29   ar
    26    21    22    1
    27     7     8   ar
    28     8     9    1
    29    15    11   ar
    30     8     4   ar
    31    22    17    1
    32    21    19    1
    33    29    23   ar
@<TRIPOS>MOLECULE
*****
 29 33 0 0 0
SMALL
GASTEIGER

@<TRIPOS>ATOM
      1 C         144.0965  139.5978  162.9635 C.3     1  UNL1        0.0294
      2 C         144.2268  139.4925  164.4541 C.3     1  UNL1        0.0666
      3 S         143.1535  138.8166  165.2549 S.3     1  UNL1       -0.0756
      4 C         141.8802  140.6342  168.4393 C.ar    1  UNL1        0.2029
      5 N         142.7075  139.5379  169.0425 N.ar    1  UNL1       -0.1250
      6 N         143.2851  138.7236  167.9231 N.ar    1  UNL1       -0.1220
      7 C         142.8149  139.3166  166.6280 C.ar    1  UNL1        0.1933
      8 N         141.9466  140.4974  166.9471 N.ar    1  UNL1       -0.2860
      9 C         141.2645  141.3855  165.9490 C.3     1  UNL1        0.1341
     10 C         139.0693  140.1889  170.0361 C.3     1  UNL1        0.0556
     11 C         139.8281  141.4784  169.9296 C.ar    1  UNL1        0.1001
     12 N         139.4280  142.7897  170.5383 N.ar    1  UNL1       -0.2085
     13 C         140.4728  143.8047  170.1806 C.ar    1  UNL1        0.2849
     14 O         141.5185  143.1209  169.3508 O.2     1  UNL1       -0.4283
     15 C         141.1201  141.6831  169.1956 C.ar    1  UNL1        0.1964
     16 C         144.4856  140.8666  162.2644 C.3     1  UNL1        0.0730
     17 N         143.8961  142.1748  162.7013 N.3     1  UNL1       -0.2724
     18 C         144.6654  143.3987  163.1018 C.3     1  UNL1        0.0724
     19 C         143.6786  144.4692  163.4625 C.3     1  UNL1        0.0214
     20 C         142.4784  145.3210  163.7521 C.3     1  UNL1        0.0072
     21 C         142.2993  143.9070  163.2849 C.3     1  UNL1        0.0350
     22 C         142.4338  142.4890  162.8145 C.3     1  UNL1        0.0761
     23 C         140.7995  143.9255  163.3005 C.ar    1  UNL1       -0.0192
     24 C         140.0691  144.5542  164.4499 C.ar    1  UNL1       -0.0041
     25 C         138.5692  144.5728  164.4655 C.ar    1  UNL1        0.0020
     26 C         137.7998  143.9625  163.3316 C.ar    1  UNL1        0.0296
     27 C         138.5303  143.3338  162.1821 C.ar    1  UNL1        0.1398
     28 F         137.7609  142.7235  161.0482 F       1  UNL1       -0.2042
     29 C         140.0301  143.3152  162.1666 C.ar    1  UNL1        0.0254
@<TRIPOS>BOND
     1    10    11    1
     2    11    12   ar
     3    12    13   ar
     4    13    14   ar
     5    14    15   ar
     6    15     4    1
     7     4     5   ar
     8     5     6   ar
     9     6     7   ar
    10     7     3    1
    11     3     2    1
    12     2     1    1
    13     1    16    1
    14    16    17    1
    15    17    18    1
    16    18    19    1
    17    19    20    1
    18    20    21    1
    19    21    23    1
    20    23    24   ar
    21    24    25   ar
    22    25    26   ar
    23    26    27   ar
    24    27    28    1
    25    27    29   ar
    26    21    22    1
    27     7     8   ar
    28     8     9    1
    29    15    11   ar
    30     8     4   ar
    31    22    17    1
    32    21    19    1
    33    29    23   ar
@<TRIPOS>MOLECULE
*****
 29 33 0 0 0
SMALL
GASTEIGER

@<TRIPOS>ATOM
      1 C         144.4216  140.3242  161.6612 C.3     1  UNL1        0.0294
      2 C         144.0133  139.0963  160.9024 C.3     1  UNL1        0.0666
      3 S         143.4914  137.8984  161.6390 S.3     1  UNL1       -0.0756
      4 C         140.1314  138.0076  163.5791 C.ar    1  UNL1        0.2029
      5 N         139.6554  137.6893  162.1927 N.ar    1  UNL1       -0.1250
      6 N         140.8560  137.6096  161.2972 N.ar    1  UNL1       -0.1220
      7 C         142.0742  137.8787  162.1301 C.ar    1  UNL1        0.1933
      8 N         141.6262  138.1247  163.5404 N.ar    1  UNL1       -0.2860
      9 C         142.5170  138.4335  164.7072 C.3     1  UNL1        0.1341
     10 C         139.5711  140.8089  165.1565 C.3     1  UNL1        0.0556
     11 C         139.0071  139.4664  165.5163 C.ar    1  UNL1        0.1001
     12 N         138.0865  139.1758  166.6644 N.ar    1  UNL1       -0.2085
     13 C         137.7751  137.7085  166.6489 C.ar    1  UNL1        0.2849
     14 O         138.5032  137.0924  165.4913 O.2     1  UNL1       -0.4283
     15 C         139.2646  138.1788  164.7913 C.ar    1  UNL1        0.1964
     16 C         144.2138  141.6819  161.0585 C.3     1  UNL1        0.0730
     17 N         143.6525  142.7949  161.8929 N.3     1  UNL1       -0.2724
     18 C         144.4288  143.9398  162.4731 C.3     1  UNL1        0.0724
     19 C         143.4725  144.8109  163.2324 C.3     1  UNL1        0.0214
     20 C         142.3027  145.4715  163.8995 C.3     1  UNL1        0.0072
     21 C         142.1050  144.2045  163.1215 C.3     1  UNL1        0.0350
     22 C         142.2163  142.9585  162.2937 C.3     1  UNL1        0.0761
     23 C         140.6275  144.1031  163.3596 C.ar    1  UNL1       -0.0192
     24 C         140.0168  144.7476  164.5686 C.ar    1  UNL1       -0.0041
     25 C         138.5392  144.6462  164.8067 C.ar    1  UNL1        0.0020
     26 C         137.6725  143.9005  163.8358 C.ar    1  UNL1        0.0296
     27 C         138.2833  143.2560  162.6268 C.ar    1  UNL1        0.1398
     28 F         137.4166  142.5103  161.6559 F       1  UNL1       -0.2042
     29 C         139.7608  143.3574  162.3887 C.ar    1  UNL1        0.0254
@<TRIPOS>BOND
     1    10    11    1
     2    11    12   ar
     3    12    13   ar
     4    13    14   ar
     5    14    15   ar
     6    15     4    1
     7     4     5   ar
     8     5     6   ar
     9     6     7   ar
    10     7     3    1
    11     3     2    1
    12     2     1    1
    13     1    16    1
    14    16    17    1
    15    17    18    1
    16    18    19    1
    17    19    20    1
    18    20    21    1
    19    21    23    1
    20    23    24   ar
    21    24    25   ar
    22    25    26   ar
    23    26    27   ar
    24    27    28    1
    25    27    29   ar
    26    21    22    1
    27     7     8   ar
    28     8     9    1
    29    15    11   ar
    30     8     4   ar
    31    22    17    1
    32    21    19    1
    33    29    23   ar
@<TRIPOS>MOLECULE
*****
 29 33 0 0 0
SMALL
GASTEIGER

@<TRIPOS>ATOM
      1 C         143.2227  139.0796  161.5296 C.3     1  UNL1        0.0294
      2 C         142.7327  137.9544  162.3921 C.3     1  UNL1        0.0666
      3 S         141.6267  138.1913  163.3773 S.3     1  UNL1       -0.0756
      4 C         141.7364  139.5458  167.0130 C.ar    1  UNL1        0.2029
      5 N         143.1511  139.0800  166.8344 N.ar    1  UNL1       -0.1250
      6 N         143.2821  138.5159  165.4508 N.ar    1  UNL1       -0.1220
      7 C         141.9485  138.6331  164.7742 C.ar    1  UNL1        0.1933
      8 N         140.9933  139.2696  165.7398 N.ar    1  UNL1       -0.2860
      9 C         139.5484  139.5761  165.4779 C.3     1  UNL1        0.1341
     10 C         142.9558  142.1330  168.5844 C.3     1  UNL1        0.0556
     11 C         141.7258  141.3661  168.9704 C.ar    1  UNL1        0.1001
     12 N         140.8403  141.6538  170.1465 N.ar    1  UNL1       -0.2085
     13 C         139.7326  140.6425  170.1510 C.ar    1  UNL1        0.2849
     14 O         139.9334  139.7297  168.9779 O.2     1  UNL1       -0.4283
     15 C         141.1653  140.1770  168.2482 C.ar    1  UNL1        0.1964
     16 C         144.4625  139.8324  161.9117 C.3     1  UNL1        0.0730
     17 N         144.3838  140.9505  162.9085 N.3     1  UNL1       -0.2724
     18 C         145.5140  141.4600  163.7531 C.3     1  UNL1        0.0724
     19 C         144.9898  142.5798  164.6024 C.3     1  UNL1        0.0214
     20 C         144.1946  143.6394  165.3058 C.3     1  UNL1        0.0072
     21 C         143.5357  142.7624  164.2827 C.3     1  UNL1        0.0350
     22 C         143.1612  141.7555  163.2359 C.3     1  UNL1        0.0761
     23 C         142.1753  143.3840  164.3961 C.ar    1  UNL1       -0.0192
     24 C         141.2404  142.9490  165.4855 C.ar    1  UNL1       -0.0041
     25 C         139.8799  143.5706  165.5990 C.ar    1  UNL1        0.0020
     26 C         139.4544  144.6273  164.6231 C.ar    1  UNL1        0.0296
     27 C         140.3894  145.0623  163.5336 C.ar    1  UNL1        0.1398
     28 F         139.9638  146.1190  162.5577 F       1  UNL1       -0.2042
     29 C         141.7497  144.4407  163.4202 C.ar    1  UNL1        0.0254
@<TRIPOS>BOND
     1    10    11    1
     2    11    12   ar
     3    12    13   ar
     4    13    14   ar
     5    14    15   ar
     6    15     4    1
     7     4     5   ar
     8     5     6   ar
     9     6     7   ar
    10     7     3    1
    11     3     2    1
    12     2     1    1
    13     1    16    1
    14    16    17    1
    15    17    18    1
    16    18    19    1
    17    19    20    1
    18    20    21    1
    19    21    23    1
    20    23    24   ar
    21    24    25   ar
    22    25    26   ar
    23    26    27   ar
    24    27    28    1
    25    27    29   ar
    26    21    22    1
    27     7     8   ar
    28     8     9    1
    29    15    11   ar
    30     8     4   ar
    31    22    17    1
    32    21    19    1
    33    29    23   ar
@<TRIPOS>MOLECULE
*****
 29 33 0 0 0
SMALL
GASTEIGER

@<TRIPOS>ATOM
      1 C         142.2943  144.7620  163.5133 C.3     1  UNL1        0.0294
      2 C         142.7831  143.6867  162.5887 C.3     1  UNL1        0.0666
      3 S         143.6929  142.6111  163.1039 S.3     1  UNL1       -0.0756
      4 C         142.5281  140.3709  166.0518 C.ar    1  UNL1        0.2029
      5 N         142.1577  139.5174  164.8752 N.ar    1  UNL1       -0.1250
      6 N         142.5490  140.2526  163.6278 N.ar    1  UNL1       -0.1220
      7 C         143.1611  141.5606  164.0333 C.ar    1  UNL1        0.1933
      8 N         143.1482  141.6336  165.5315 N.ar    1  UNL1       -0.2860
      9 C         143.6648  142.7701  166.3632 C.3     1  UNL1        0.1341
     10 C         140.4228  141.8161  168.0838 C.3     1  UNL1        0.0556
     11 C         141.3480  140.6870  168.4293 C.ar    1  UNL1        0.1001
     12 N         141.4678  140.0239  169.7694 N.ar    1  UNL1       -0.2085
     13 C         142.5095  138.9499  169.6637 C.ar    1  UNL1        0.2849
     14 O         143.0334  138.9491  168.2582 O.2     1  UNL1       -0.4283
     15 C         142.3156  140.0227  167.4953 C.ar    1  UNL1        0.1964
     16 C         140.8956  144.7088  164.0525 C.3     1  UNL1        0.0730
     17 N         139.9258  143.6943  163.5231 N.3     1  UNL1       -0.2724
     18 C         139.0085  143.8792  162.3508 C.3     1  UNL1        0.0724
     19 C         138.2188  142.6159  162.1763 C.3     1  UNL1        0.0214
     20 C         137.5936  141.2544  162.2501 C.3     1  UNL1        0.0072
     21 C         138.6481  141.6502  163.2408 C.3     1  UNL1        0.0350
     22 C         139.7030  142.3167  164.0732 C.3     1  UNL1        0.0761
     23 C         138.6458  140.3553  163.9979 C.ar    1  UNL1       -0.0192
     24 C         138.9106  139.0657  163.2790 C.ar    1  UNL1       -0.0041
     25 C         138.9083  137.7707  164.0362 C.ar    1  UNL1        0.0020
     26 C         138.6412  137.7655  165.5122 C.ar    1  UNL1        0.0296
     27 C         138.3764  139.0552  166.2311 C.ar    1  UNL1        0.1398
     28 F         138.1093  139.0499  167.7072 F       1  UNL1       -0.2042
     29 C         138.3787  140.3500  165.4740 C.ar    1  UNL1        0.0254
@<TRIPOS>BOND
     1    10    11    1
     2    11    12   ar
     3    12    13   ar
     4    13    14   ar
     5    14    15   ar
     6    15     4    1
     7     4     5   ar
     8     5     6   ar
     9     6     7   ar
    10     7     3    1
    11     3     2    1
    12     2     1    1
    13     1    16    1
    14    16    17    1
    15    17    18    1
    16    18    19    1
    17    19    20    1
    18    20    21    1
    19    21    23    1
    20    23    24   ar
    21    24    25   ar
    22    25    26   ar
    23    26    27   ar
    24    27    28    1
    25    27    29   ar
    26    21    22    1
    27     7     8   ar
    28     8     9    1
    29    15    11   ar
    30     8     4   ar
    31    22    17    1
    32    21    19    1
    33    29    23   ar
@<TRIPOS>MOLECULE
*****
 29 33 0 0 0
SMALL
GASTEIGER

@<TRIPOS>ATOM
      1 C         143.9881  143.9674  163.6632 C.3     1  UNL1        0.0294
      2 C         143.0360  145.1059  163.8804 C.3     1  UNL1        0.0666
      3 S         141.6031  144.9767  163.4559 S.3     1  UNL1       -0.0756
      4 C         139.7576  141.5999  163.9621 C.ar    1  UNL1        0.2029
      5 N         139.3386  142.3466  165.1937 N.ar    1  UNL1       -0.1250
      6 N         139.9789  143.7024  165.1540 N.ar    1  UNL1       -0.1220
      7 C         140.7936  143.7937  163.8978 C.ar    1  UNL1        0.1933
      8 N         140.6568  142.4942  163.1612 N.ar    1  UNL1       -0.2860
      9 C         141.3054  142.1496  161.8533 C.3     1  UNL1        0.1341
     10 C         137.6806  140.7702  161.5856 C.3     1  UNL1        0.0556
     11 C         138.3944  139.8225  162.5035 C.ar    1  UNL1        0.1001
     12 N         138.2787  138.3270  162.4901 N.ar    1  UNL1       -0.2085
     13 C         139.1619  137.7841  163.5741 C.ar    1  UNL1        0.2849
     14 O         139.8233  138.9440  164.2575 O.2     1  UNL1       -0.4283
     15 C         139.3490  140.2038  163.5958 C.ar    1  UNL1        0.1964
     16 C         144.5243  143.2036  164.8375 C.3     1  UNL1        0.0730
     17 N         143.7033  142.1148  165.4623 N.3     1  UNL1       -0.2724
     18 C         143.6597  140.6811  165.0234 C.3     1  UNL1        0.0724
     19 C         142.7111  139.9487  165.9255 C.3     1  UNL1        0.0214
     20 C         141.7287  139.4963  166.9648 C.3     1  UNL1        0.0072
     21 C         142.1684  140.9298  166.9219 C.3     1  UNL1        0.0350
     22 C         142.7816  142.2685  166.6357 C.3     1  UNL1        0.0761
     23 C         141.3386  141.3832  168.0864 C.ar    1  UNL1       -0.0192
     24 C         141.6289  142.6980  168.7474 C.ar    1  UNL1       -0.0041
     25 C         140.7991  143.1514  169.9119 C.ar    1  UNL1        0.0020
     26 C         139.6790  142.2900  170.4153 C.ar    1  UNL1        0.0296
     27 C         139.3888  140.9751  169.7542 C.ar    1  UNL1        0.1398
     28 F         138.2687  140.1137  170.2576 F       1  UNL1       -0.2042
     29 C         140.2185  140.5217  168.5898 C.ar    1  UNL1        0.0254
@<TRIPOS>BOND
     1    10    11    1
     2    11    12   ar
     3    12    13   ar
     4    13    14   ar
     5    14    15   ar
     6    15     4    1
     7     4     5   ar
     8     5     6   ar
     9     6     7   ar
    10     7     3    1
    11     3     2    1
    12     2     1    1
    13     1    16    1
    14    16    17    1
    15    17    18    1
    16    18    19    1
    17    19    20    1
    18    20    21    1
    19    21    23    1
    20    23    24   ar
    21    24    25   ar
    22    25    26   ar
    23    26    27   ar
    24    27    28    1
    25    27    29   ar
    26    21    22    1
    27     7     8   ar
    28     8     9    1
    29    15    11   ar
    30     8     4   ar
    31    22    17    1
    32    21    19    1
    33    29    23   ar
@<TRIPOS>MOLECULE
*****
 29 33 0 0 0
SMALL
GASTEIGER

@<TRIPOS>ATOM
      1 C         140.3208  145.6742  161.8454 C.3     1  UNL1        0.0294
      2 C         140.8283  144.7707  160.7609 C.3     1  UNL1        0.0666
      3 S         139.9656  143.6553  160.2492 S.3     1  UNL1       -0.0756
      4 C         138.6905  141.0491  162.8273 C.ar    1  UNL1        0.2029
      5 N         137.4395  141.8345  162.5662 N.ar    1  UNL1       -0.1250
      6 N         137.7649  142.9063  161.5687 N.ar    1  UNL1       -0.1220
      7 C         139.2170  142.7834  161.2133 C.ar    1  UNL1        0.1933
      8 N         139.7890  141.6355  161.9912 N.ar    1  UNL1       -0.2860
      9 C         141.2101  141.1580  161.9416 C.3     1  UNL1        0.1341
     10 C         139.4177  141.2058  166.0048 C.3     1  UNL1        0.0556
     11 C         139.1544  139.9541  165.2212 C.ar    1  UNL1        0.1001
     12 N         139.1791  138.5546  165.7607 N.ar    1  UNL1       -0.2085
     13 C         138.8601  137.6177  164.6336 C.ar    1  UNL1        0.2849
     14 O         138.6382  138.4381  163.3976 O.2     1  UNL1       -0.4283
     15 C         138.8201  139.8820  163.7608 C.ar    1  UNL1        0.1964
     16 C         140.7924  145.4896  163.2573 C.3     1  UNL1        0.0730
     17 N         141.9728  144.6097  163.5448 N.3     1  UNL1       -0.2724
     18 C         143.3255  144.7123  162.9049 C.3     1  UNL1        0.0724
     19 C         144.1964  143.6387  163.4873 C.3     1  UNL1        0.0214
     20 C         144.8113  142.4937  164.2362 C.3     1  UNL1        0.0072
     21 C         143.3818  142.8727  164.4871 C.3     1  UNL1        0.0350
     22 C         142.0075  143.4728  164.5226 C.3     1  UNL1        0.0761
     23 C         143.1177  141.8150  165.5174 C.ar    1  UNL1       -0.0192
     24 C         142.9189  142.1999  166.9535 C.ar    1  UNL1       -0.0041
     25 C         142.6548  141.1422  167.9838 C.ar    1  UNL1        0.0020
     26 C         142.5896  139.6995  167.5780 C.ar    1  UNL1        0.0296
     27 C         142.7884  139.3147  166.1419 C.ar    1  UNL1        0.1398
     28 F         142.7232  137.8720  165.7361 F       1  UNL1       -0.2042
     29 C         143.0525  140.3724  165.1116 C.ar    1  UNL1        0.0254
@<TRIPOS>BOND
     1    10    11    1
     2    11    12   ar
     3    12    13   ar
     4    13    14   ar
     5    14    15   ar
     6    15     4    1
     7     4     5   ar
     8     5     6   ar
     9     6     7   ar
    10     7     3    1
    11     3     2    1
    12     2     1    1
    13     1    16    1
    14    16    17    1
    15    17    18    1
    16    18    19    1
    17    19    20    1
    18    20    21    1
    19    21    23    1
    20    23    24   ar
    21    24    25   ar
    22    25    26   ar
    23    26    27   ar
    24    27    28    1
    25    27    29   ar
    26    21    22    1
    27     7     8   ar
    28     8     9    1
    29    15    11   ar
    30     8     4   ar
    31    22    17    1
    32    21    19    1
    33    29    23   ar
