@<TRIPOS>MOLECULE
*****
 31 34 0 0 0
SMALL
GASTEIGER

@<TRIPOS>ATOM
      1 N         138.6151  139.0098  165.4890 N.ar    1  UNL1       -0.3058
      2 C         138.8420  137.6047  165.0158 C.ar    1  UNL1        0.1819
      3 N         138.9208  137.3115  163.5468 N.ar    1  UNL1       -0.1873
      4 C         138.7728  138.4235  162.5511 C.ar    1  UNL1        0.2820
      5 O         138.8516  138.1303  161.0822 O.2     1  UNL1       -0.2651
      6 C         138.5458  139.8287  163.0244 C.ar    1  UNL1        0.0767
      7 C         138.3977  140.9407  162.0286 C.ar    1  UNL1        0.0438
      8 C         138.1708  142.3459  162.5019 C.ar    1  UNL1        0.1474
      9 C         138.0920  142.6390  163.9708 C.ar    1  UNL1        0.0390
     10 C         138.2401  141.5270  164.9666 C.ar    1  UNL1        0.0205
     11 C         138.4670  140.1219  164.4933 C.ar    1  UNL1        0.0662
     12 C         138.5362  139.3030  166.9580 C.3     1  UNL1        0.1365
     13 C         143.3354  141.4469  169.8512 C.3     1  UNL1        0.0311
     14 C         142.1356  140.9109  169.1279 C.ar    1  UNL1       -0.0196
     15 C         142.2620  140.4462  167.7074 C.ar    1  UNL1       -0.0044
     16 C         141.0622  139.9102  166.9840 C.ar    1  UNL1       -0.0005
     17 C         139.7360  139.8389  167.6813 C.ar    1  UNL1        0.0279
     18 C         139.6097  140.3036  169.1019 C.ar    1  UNL1        0.1376
     19 F         138.2835  140.2323  169.7992 F       1  UNL1       -0.2045
     20 C         140.8095  140.8396  169.8252 C.ar    1  UNL1        0.0251
     21 O         138.0227  143.4580  161.5061 O.3     1  UNL1       -0.4362
     22 C         139.1052  143.7123  160.4993 C.ar    1  UNL1        0.2335
     23 N         138.9434  143.2333  159.0870 N.ar    1  UNL1       -0.2099
     24 C         140.0258  143.4876  158.0802 C.ar    1  UNL1        0.1021
     25 C         141.2701  144.2208  158.4857 C.ar    1  UNL1        0.0208
     26 C         141.4318  144.6997  159.8980 C.ar    1  UNL1        0.0102
     27 C         140.3494  144.4454  160.9048 C.ar    1  UNL1        0.1248
     28 C         140.5111  144.9244  162.3171 C.3     1  UNL1        0.4229
     29 F         140.6729  145.4033  163.7293 F       1  UNL1       -0.1657
     30 F         139.8590  146.2246  161.9509 F       1  UNL1       -0.1657
     31 F         141.1632  143.6242  162.6833 F       1  UNL1       -0.1657
@<TRIPOS>BOND
     1    13    14    1
     2    14    15   ar
     3    15    16   ar
     4    16    17   ar
     5    17    12    1
     6    12     1    1
     7     1     2   ar
     8     2     3   ar
     9     3     4   ar
    10     4     5    2
    11     4     6   ar
    12     6     7   ar
    13     7     8   ar
    14     8    21    1
    15    21    22    1
    16    22    23   ar
    17    23    24   ar
    18    24    25   ar
    19    25    26   ar
    20    26    27   ar
    21    27    28    1
    22    28    29    1
    23    28    30    1
    24    28    31    1
    25     8     9   ar
    26     9    10   ar
    27    10    11   ar
    28    17    18   ar
    29    18    19    1
    30    18    20   ar
    31    20    14   ar
    32    11     1   ar
    33    11     6   ar
    34    27    22   ar
@<TRIPOS>MOLECULE
*****
 31 34 0 0 0
SMALL
GASTEIGER

@<TRIPOS>ATOM
      1 N         138.5598  139.0177  165.4897 N.ar    1  UNL1       -0.3058
      2 C         138.8736  137.5913  165.1480 C.ar    1  UNL1        0.1819
      3 N         138.9835  137.1708  163.7123 N.ar    1  UNL1       -0.1873
      4 C         138.7796  138.1766  162.6185 C.ar    1  UNL1        0.2820
      5 O         138.8896  137.7561  161.1828 O.2     1  UNL1       -0.2651
      6 C         138.4658  139.6031  162.9602 C.ar    1  UNL1        0.0767
      7 C         138.2619  140.6090  161.8663 C.ar    1  UNL1        0.0438
      8 C         137.9480  142.0354  162.2081 C.ar    1  UNL1        0.1474
      9 C         137.8381  142.4559  163.6437 C.ar    1  UNL1        0.0390
     10 C         138.0420  141.4500  164.7376 C.ar    1  UNL1        0.0205
     11 C         138.3558  140.0236  164.3958 C.ar    1  UNL1        0.0662
     12 C         138.4498  139.4382  166.9254 C.3     1  UNL1        0.1365
     13 C         143.3041  141.3964  169.8581 C.3     1  UNL1        0.0311
     14 C         142.0906  140.9069  169.1249 C.ar    1  UNL1       -0.0196
     15 C         142.1873  140.5439  167.6728 C.ar    1  UNL1       -0.0044
     16 C         140.9737  140.0543  166.9395 C.ar    1  UNL1       -0.0005
     17 C         139.6634  139.9278  167.6585 C.ar    1  UNL1        0.0279
     18 C         139.5666  140.2908  169.1108 C.ar    1  UNL1        0.1376
     19 F         138.2563  140.1643  169.8298 F       1  UNL1       -0.2045
     20 C         140.7802  140.7804  169.8439 C.ar    1  UNL1        0.0251
     21 O         137.7441  143.0413  161.1142 O.3     1  UNL1       -0.4362
     22 C         138.9261  143.5979  160.3773 C.ar    1  UNL1        0.2335
     23 N         139.6977  144.7468  160.9560 N.ar    1  UNL1       -0.2099
     24 C         140.8797  145.3034  160.2190 C.ar    1  UNL1        0.1021
     25 C         141.2901  144.7111  158.9034 C.ar    1  UNL1        0.0208
     26 C         140.5186  143.5623  158.3248 C.ar    1  UNL1        0.0102
     27 C         139.3366  143.0057  159.0617 C.ar    1  UNL1        0.1248
     28 C         138.5650  141.8568  158.4830 C.3     1  UNL1        0.4229
     29 F         137.7934  140.7080  157.9043 F       1  UNL1       -0.1657
     30 F         139.6126  140.9040  158.9776 F       1  UNL1       -0.1657
     31 F         137.5174  142.8096  157.9883 F       1  UNL1       -0.1657
@<TRIPOS>BOND
     1    13    14    1
     2    14    15   ar
     3    15    16   ar
     4    16    17   ar
     5    17    12    1
     6    12     1    1
     7     1     2   ar
     8     2     3   ar
     9     3     4   ar
    10     4     5    2
    11     4     6   ar
    12     6     7   ar
    13     7     8   ar
    14     8    21    1
    15    21    22    1
    16    22    23   ar
    17    23    24   ar
    18    24    25   ar
    19    25    26   ar
    20    26    27   ar
    21    27    28    1
    22    28    29    1
    23    28    30    1
    24    28    31    1
    25     8     9   ar
    26     9    10   ar
    27    10    11   ar
    28    17    18   ar
    29    18    19    1
    30    18    20   ar
    31    20    14   ar
    32    11     1   ar
    33    11     6   ar
    34    27    22   ar
@<TRIPOS>MOLECULE
*****
 31 34 0 0 0
SMALL
GASTEIGER

@<TRIPOS>ATOM
      1 N         138.5340  139.6751  161.9356 N.ar    1  UNL1       -0.3058
      2 C         137.8914  140.8795  161.3139 C.ar    1  UNL1        0.1819
      3 N         137.5622  142.0742  162.1591 N.ar    1  UNL1       -0.1873
      4 C         137.8755  142.0644  163.6260 C.ar    1  UNL1        0.2820
      5 O         137.5463  143.2591  164.4712 O.2     1  UNL1       -0.2651
      6 C         138.5181  140.8600  164.2477 C.ar    1  UNL1        0.0767
      7 C         138.8315  140.8503  165.7145 C.ar    1  UNL1        0.0438
      8 C         139.4740  139.6459  166.3362 C.ar    1  UNL1        0.1474
      9 C         139.8033  138.4512  165.4910 C.ar    1  UNL1        0.0390
     10 C         139.4899  138.4609  164.0241 C.ar    1  UNL1        0.0205
     11 C         138.8474  139.6653  163.4025 C.ar    1  UNL1        0.0662
     12 C         138.8633  138.4805  161.0903 C.3     1  UNL1        0.1365
     13 C         143.1214  138.8653  156.8809 C.3     1  UNL1        0.0311
     14 C         142.0569  138.7691  157.9333 C.ar    1  UNL1       -0.0196
     15 C         140.6131  138.9193  157.5554 C.ar    1  UNL1       -0.0044
     16 C         139.5485  138.8231  158.6078 C.ar    1  UNL1       -0.0005
     17 C         139.9278  138.5767  160.0380 C.ar    1  UNL1        0.0279
     18 C         141.3717  138.4265  160.4158 C.ar    1  UNL1        0.1376
     19 F         141.7510  138.1801  161.8460 F       1  UNL1       -0.2045
     20 C         142.4362  138.5227  159.3635 C.ar    1  UNL1        0.0251
     21 O         139.7874  139.6361  167.8031 O.3     1  UNL1       -0.4362
     22 C         140.6676  140.7000  168.3891 C.ar    1  UNL1        0.2335
     23 N         140.0559  141.9074  169.0356 N.ar    1  UNL1       -0.2099
     24 C         140.9361  142.9713  169.6216 C.ar    1  UNL1        0.1021
     25 C         142.4280  142.8277  169.5610 C.ar    1  UNL1        0.0208
     26 C         143.0397  141.6203  168.9146 C.ar    1  UNL1        0.0102
     27 C         142.1595  140.5564  168.3286 C.ar    1  UNL1        0.1248
     28 C         142.7712  139.3490  167.6821 C.3     1  UNL1        0.4229
     29 F         143.3829  138.1416  167.0355 F       1  UNL1       -0.1657
     30 F         142.7409  138.6291  168.9977 F       1  UNL1       -0.1657
     31 F         142.8014  140.0688  166.3664 F       1  UNL1       -0.1657
@<TRIPOS>BOND
     1    13    14    1
     2    14    15   ar
     3    15    16   ar
     4    16    17   ar
     5    17    12    1
     6    12     1    1
     7     1     2   ar
     8     2     3   ar
     9     3     4   ar
    10     4     5    2
    11     4     6   ar
    12     6     7   ar
    13     7     8   ar
    14     8    21    1
    15    21    22    1
    16    22    23   ar
    17    23    24   ar
    18    24    25   ar
    19    25    26   ar
    20    26    27   ar
    21    27    28    1
    22    28    29    1
    23    28    30    1
    24    28    31    1
    25     8     9   ar
    26     9    10   ar
    27    10    11   ar
    28    17    18   ar
    29    18    19    1
    30    18    20   ar
    31    20    14   ar
    32    11     1   ar
    33    11     6   ar
    34    27    22   ar
@<TRIPOS>MOLECULE
*****
 31 34 0 0 0
SMALL
GASTEIGER

@<TRIPOS>ATOM
      1 N         141.4168  138.1076  162.2298 N.ar    1  UNL1       -0.3058
      2 C         140.0096  138.1679  161.7142 C.ar    1  UNL1        0.1819
      3 N         138.8942  138.5869  162.6255 N.ar    1  UNL1       -0.1873
      4 C         139.1861  138.9457  164.0523 C.ar    1  UNL1        0.2820
      5 O         138.0708  139.3647  164.9636 O.2     1  UNL1       -0.2651
      6 C         140.5935  138.8855  164.5680 C.ar    1  UNL1        0.0767
      7 C         140.8854  139.2442  165.9949 C.ar    1  UNL1        0.0438
      8 C         142.2926  139.1840  166.5106 C.ar    1  UNL1        0.1474
      9 C         143.4080  138.7649  165.5993 C.ar    1  UNL1        0.0390
     10 C         143.1161  138.4062  164.1724 C.ar    1  UNL1        0.0205
     11 C         141.7088  138.4664  163.6568 C.ar    1  UNL1        0.0662
     12 C         142.5322  137.6886  161.3186 C.3     1  UNL1        0.1365
     13 C         143.8201  140.9561  156.4540 C.3     1  UNL1        0.0311
     14 C         143.4981  140.1393  157.6702 C.ar    1  UNL1       -0.0196
     15 C         142.8729  138.7842  157.5194 C.ar    1  UNL1       -0.0044
     16 C         142.5509  137.9672  158.7356 C.ar    1  UNL1       -0.0005
     17 C         142.8542  138.5055  160.1025 C.ar    1  UNL1        0.0279
     18 C         143.4794  139.8606  160.2532 C.ar    1  UNL1        0.1376
     19 F         143.7827  140.3989  161.6200 F       1  UNL1       -0.2045
     20 C         143.8014  140.6775  159.0370 C.ar    1  UNL1        0.0251
     21 O         142.5846  139.5428  167.9375 O.3     1  UNL1       -0.4362
     22 C         141.6910  140.5009  168.6678 C.ar    1  UNL1        0.2335
     23 N         140.5717  139.9812  169.5205 N.ar    1  UNL1       -0.2099
     24 C         139.6780  140.9393  170.2509 C.ar    1  UNL1        0.1021
     25 C         139.9038  142.4173  170.1285 C.ar    1  UNL1        0.0208
     26 C         141.0230  142.9369  169.2758 C.ar    1  UNL1        0.0102
     27 C         141.9166  141.9788  168.5455 C.ar    1  UNL1        0.1248
     28 C         143.0360  142.4985  167.6927 C.3     1  UNL1        0.4229
     29 F         144.1553  143.0182  166.8401 F       1  UNL1       -0.1657
     30 F         142.1256  142.5034  166.5006 F       1  UNL1       -0.1657
     31 F         143.9463  142.4937  168.8848 F       1  UNL1       -0.1657
@<TRIPOS>BOND
     1    13    14    1
     2    14    15   ar
     3    15    16   ar
     4    16    17   ar
     5    17    12    1
     6    12     1    1
     7     1     2   ar
     8     2     3   ar
     9     3     4   ar
    10     4     5    2
    11     4     6   ar
    12     6     7   ar
    13     7     8   ar
    14     8    21    1
    15    21    22    1
    16    22    23   ar
    17    23    24   ar
    18    24    25   ar
    19    25    26   ar
    20    26    27   ar
    21    27    28    1
    22    28    29    1
    23    28    30    1
    24    28    31    1
    25     8     9   ar
    26     9    10   ar
    27    10    11   ar
    28    17    18   ar
    29    18    19    1
    30    18    20   ar
    31    20    14   ar
    32    11     1   ar
    33    11     6   ar
    34    27    22   ar
@<TRIPOS>MOLECULE
*****
 31 34 0 0 0
SMALL
GASTEIGER

@<TRIPOS>ATOM
      1 N         143.8922  140.9836  161.6118 N.ar    1  UNL1       -0.3058
      2 C         144.1113  142.0728  160.6041 C.ar    1  UNL1        0.1819
      3 N         144.1726  143.5042  161.0481 N.ar    1  UNL1       -0.1873
      4 C         144.0148  143.8465  162.5000 C.ar    1  UNL1        0.2820
      5 O         144.0761  145.2779  162.9440 O.2     1  UNL1       -0.2651
      6 C         143.7957  142.7573  163.5078 C.ar    1  UNL1        0.0767
      7 C         143.6379  143.0996  164.9597 C.ar    1  UNL1        0.0438
      8 C         143.4188  142.0104  165.9674 C.ar    1  UNL1        0.1474
      9 C         143.3575  140.5790  165.5234 C.ar    1  UNL1        0.0390
     10 C         143.5153  140.2367  164.0715 C.ar    1  UNL1        0.0205
     11 C         143.7344  141.3258  163.0638 C.ar    1  UNL1        0.0662
     12 C         143.8309  139.5521  161.1678 C.3     1  UNL1        0.1365
     13 C         139.7152  137.8291  157.1563 C.3     1  UNL1        0.0311
     14 C         140.7441  138.2599  158.1592 C.ar    1  UNL1       -0.0196
     15 C         142.1981  138.2567  157.7905 C.ar    1  UNL1       -0.0044
     16 C         143.2271  138.6875  158.7934 C.ar    1  UNL1       -0.0005
     17 C         142.8020  139.1214  160.1649 C.ar    1  UNL1        0.0279
     18 C         141.3480  139.1245  160.5336 C.ar    1  UNL1        0.1376
     19 F         140.9229  139.5584  161.9051 F       1  UNL1       -0.2045
     20 C         140.3191  138.6937  159.5307 C.ar    1  UNL1        0.0251
     21 O         143.2609  142.3527  167.4194 O.3     1  UNL1       -0.4362
     22 C         142.4031  141.4962  168.3029 C.ar    1  UNL1        0.2335
     23 N         143.0313  140.4370  169.1594 N.ar    1  UNL1       -0.2099
     24 C         142.1734  139.5805  170.0428 C.ar    1  UNL1        0.1021
     25 C         140.6874  139.7832  170.0698 C.ar    1  UNL1        0.0208
     26 C         140.0593  140.8423  169.2133 C.ar    1  UNL1        0.0102
     27 C         140.9171  141.6988  168.3298 C.ar    1  UNL1        0.1248
     28 C         140.2889  142.7580  167.4733 C.3     1  UNL1        0.4229
     29 F         139.6607  143.8172  166.6168 F       1  UNL1       -0.1657
     30 F         140.3063  143.7074  168.6345 F       1  UNL1       -0.1657
     31 F         140.2715  141.8087  166.3122 F       1  UNL1       -0.1657
@<TRIPOS>BOND
     1    13    14    1
     2    14    15   ar
     3    15    16   ar
     4    16    17   ar
     5    17    12    1
     6    12     1    1
     7     1     2   ar
     8     2     3   ar
     9     3     4   ar
    10     4     5    2
    11     4     6   ar
    12     6     7   ar
    13     7     8   ar
    14     8    21    1
    15    21    22    1
    16    22    23   ar
    17    23    24   ar
    18    24    25   ar
    19    25    26   ar
    20    26    27   ar
    21    27    28    1
    22    28    29    1
    23    28    30    1
    24    28    31    1
    25     8     9   ar
    26     9    10   ar
    27    10    11   ar
    28    17    18   ar
    29    18    19    1
    30    18    20   ar
    31    20    14   ar
    32    11     1   ar
    33    11     6   ar
    34    27    22   ar
@<TRIPOS>MOLECULE
*****
 31 34 0 0 0
SMALL
GASTEIGER

@<TRIPOS>ATOM
      1 N         143.5952  139.9042  164.3883 N.ar    1  UNL1       -0.3058
      2 C         144.0549  141.2692  164.8073 C.ar    1  UNL1        0.1819
      3 N         144.4746  142.2699  163.7717 N.ar    1  UNL1       -0.1873
      4 C         144.4346  141.9057  162.3172 C.ar    1  UNL1        0.2820
      5 O         144.8542  142.9064  161.2816 O.2     1  UNL1       -0.2651
      6 C         143.9749  140.5407  161.8981 C.ar    1  UNL1        0.0767
      7 C         143.9348  140.1765  160.4436 C.ar    1  UNL1        0.0438
      8 C         143.4751  138.8115  160.0247 C.ar    1  UNL1        0.1474
      9 C         143.0555  137.8108  161.0602 C.ar    1  UNL1        0.0390
     10 C         143.0955  138.1750  162.5148 C.ar    1  UNL1        0.0205
     11 C         143.5552  139.5400  162.9337 C.ar    1  UNL1        0.0662
     12 C         143.1756  138.9035  165.4239 C.3     1  UNL1        0.1365
     13 C         139.2231  140.4521  169.6641 C.3     1  UNL1        0.0311
     14 C         140.2112  140.0650  168.6041 C.ar    1  UNL1       -0.0196
     15 C         141.6505  139.8452  168.9647 C.ar    1  UNL1       -0.0044
     16 C         142.6387  139.4581  167.9046 C.ar    1  UNL1       -0.0005
     17 C         142.1875  139.2907  166.4839 C.ar    1  UNL1        0.0279
     18 C         140.7481  139.5104  166.1233 C.ar    1  UNL1        0.1376
     19 F         140.2969  139.3430  164.7026 F       1  UNL1       -0.2045
     20 C         139.7600  139.8976  167.1833 C.ar    1  UNL1        0.0251
     21 O         143.4351  138.4473  158.5701 O.3     1  UNL1       -0.4362
     22 C         142.1184  138.2051  157.8936 C.ar    1  UNL1        0.2335
     23 N         140.9088  138.9921  158.3031 N.ar    1  UNL1       -0.2099
     24 C         139.5921  138.7499  157.6266 C.ar    1  UNL1        0.1021
     25 C         139.4850  137.7206  156.5406 C.ar    1  UNL1        0.0208
     26 C         140.6945  136.9337  156.1312 C.ar    1  UNL1        0.0102
     27 C         142.0112  137.1759  156.8076 C.ar    1  UNL1        0.1248
     28 C         143.2208  136.3889  156.3982 C.3     1  UNL1        0.4229
     29 F         144.4303  135.6019  155.9887 F       1  UNL1       -0.1657
     30 F         143.4187  137.3031  155.2256 F       1  UNL1       -0.1657
     31 F         143.0229  135.4747  157.5708 F       1  UNL1       -0.1657
@<TRIPOS>BOND
     1    13    14    1
     2    14    15   ar
     3    15    16   ar
     4    16    17   ar
     5    17    12    1
     6    12     1    1
     7     1     2   ar
     8     2     3   ar
     9     3     4   ar
    10     4     5    2
    11     4     6   ar
    12     6     7   ar
    13     7     8   ar
    14     8    21    1
    15    21    22    1
    16    22    23   ar
    17    23    24   ar
    18    24    25   ar
    19    25    26   ar
    20    26    27   ar
    21    27    28    1
    22    28    29    1
    23    28    30    1
    24    28    31    1
    25     8     9   ar
    26     9    10   ar
    27    10    11   ar
    28    17    18   ar
    29    18    19    1
    30    18    20   ar
    31    20    14   ar
    32    11     1   ar
    33    11     6   ar
    34    27    22   ar
@<TRIPOS>MOLECULE
*****
 31 34 0 0 0
SMALL
GASTEIGER

@<TRIPOS>ATOM
      1 N         139.4768  138.0552  162.3872 N.ar    1  UNL1       -0.3058
      2 C         138.0640  138.5140  162.1790 C.ar    1  UNL1        0.1819
      3 N         137.6646  139.1466  160.8789 N.ar    1  UNL1       -0.1873
      4 C         138.6782  139.3204  159.7869 C.ar    1  UNL1        0.2820
      5 O         138.2789  139.9531  158.4868 O.2     1  UNL1       -0.2651
      6 C         140.0911  138.8616  159.9950 C.ar    1  UNL1        0.0767
      7 C         141.1046  139.0355  158.9030 C.ar    1  UNL1        0.0438
      8 C         142.5174  138.5767  159.1112 C.ar    1  UNL1        0.1474
      9 C         142.9168  137.9440  160.4113 C.ar    1  UNL1        0.0390
     10 C         141.9032  137.7702  161.5033 C.ar    1  UNL1        0.0205
     11 C         140.4904  138.2290  161.2951 C.ar    1  UNL1        0.0662
     12 C         139.8761  137.4226  163.6873 C.3     1  UNL1        0.1365
     13 C         139.5176  140.5633  168.7869 C.3     1  UNL1        0.0311
     14 C         139.6072  139.7782  167.5121 C.ar    1  UNL1       -0.0196
     15 C         138.4100  139.0288  167.0070 C.ar    1  UNL1       -0.0044
     16 C         138.4996  138.2436  165.7321 C.ar    1  UNL1       -0.0005
     17 C         139.7865  138.2077  164.9622 C.ar    1  UNL1        0.0279
     18 C         140.9837  138.9571  165.4673 C.ar    1  UNL1        0.1376
     19 F         142.2706  138.9213  164.6974 F       1  UNL1       -0.2045
     20 C         140.8941  139.7423  166.7422 C.ar    1  UNL1        0.0251
     21 O         143.5311  138.7505  158.0191 O.3     1  UNL1       -0.4362
     22 C         143.0827  138.8825  156.5938 C.ar    1  UNL1        0.2335
     23 N         142.7229  140.2304  156.0425 N.ar    1  UNL1       -0.2099
     24 C         142.2746  140.3624  154.6172 C.ar    1  UNL1        0.1021
     25 C         142.1860  139.1465  153.7431 C.ar    1  UNL1        0.0208
     26 C         142.5458  137.7987  154.2944 C.ar    1  UNL1        0.0102
     27 C         142.9942  137.6667  155.7198 C.ar    1  UNL1        0.1248
     28 C         143.3540  136.3188  156.2711 C.3     1  UNL1        0.4229
     29 F         143.7137  134.9710  156.8223 F       1  UNL1       -0.1657
     30 F         144.7147  136.4277  155.6494 F       1  UNL1       -0.1657
     31 F         141.9933  136.2099  156.8927 F       1  UNL1       -0.1657
@<TRIPOS>BOND
     1    13    14    1
     2    14    15   ar
     3    15    16   ar
     4    16    17   ar
     5    17    12    1
     6    12     1    1
     7     1     2   ar
     8     2     3   ar
     9     3     4   ar
    10     4     5    2
    11     4     6   ar
    12     6     7   ar
    13     7     8   ar
    14     8    21    1
    15    21    22    1
    16    22    23   ar
    17    23    24   ar
    18    24    25   ar
    19    25    26   ar
    20    26    27   ar
    21    27    28    1
    22    28    29    1
    23    28    30    1
    24    28    31    1
    25     8     9   ar
    26     9    10   ar
    27    10    11   ar
    28    17    18   ar
    29    18    19    1
    30    18    20   ar
    31    20    14   ar
    32    11     1   ar
    33    11     6   ar
    34    27    22   ar
@<TRIPOS>MOLECULE
*****
 31 34 0 0 0
SMALL
GASTEIGER

@<TRIPOS>ATOM
      1 N         143.3312  139.2241  165.0441 N.ar    1  UNL1       -0.3058
      2 C         144.6306  139.8769  164.6765 C.ar    1  UNL1        0.1819
      3 N         144.9527  140.1485  163.2369 N.ar    1  UNL1       -0.1873
      4 C         143.9752  139.7673  162.1649 C.ar    1  UNL1        0.2820
      5 O         144.2972  140.0389  160.7252 O.2     1  UNL1       -0.2651
      6 C         142.6757  139.1144  162.5325 C.ar    1  UNL1        0.0767
      7 C         141.6983  138.7332  161.4605 C.ar    1  UNL1        0.0438
      8 C         140.3988  138.0803  161.8281 C.ar    1  UNL1        0.1474
      9 C         140.0768  137.8087  163.2677 C.ar    1  UNL1        0.0390
     10 C         141.0542  138.1899  164.3397 C.ar    1  UNL1        0.0205
     11 C         142.3537  138.8428  163.9721 C.ar    1  UNL1        0.0662
     12 C         143.0092  138.9524  166.4838 C.3     1  UNL1        0.1365
     13 C         140.4499  143.2157  169.8415 C.3     1  UNL1        0.0311
     14 C         141.0897  142.1499  169.0021 C.ar    1  UNL1       -0.0196
     15 C         141.2409  142.3499  167.5233 C.ar    1  UNL1       -0.0044
     16 C         141.8808  141.2841  166.6837 C.ar    1  UNL1       -0.0005
     17 C         142.3694  140.0182  167.3232 C.ar    1  UNL1        0.0279
     18 C         142.2182  139.8182  168.8021 C.ar    1  UNL1        0.1376
     19 F         142.7068  138.5524  169.4416 F       1  UNL1       -0.2045
     20 C         141.5783  140.8840  169.6415 C.ar    1  UNL1        0.0251
     21 O         139.4213  137.6990  160.7560 O.3     1  UNL1       -0.4362
     22 C         139.2703  138.5610  159.5378 C.ar    1  UNL1        0.2335
     23 N         139.8801  138.1329  158.2358 N.ar    1  UNL1       -0.2099
     24 C         139.7291  138.9949  157.0176 C.ar    1  UNL1        0.1021
     25 C         138.9683  140.2850  157.1012 C.ar    1  UNL1        0.0208
     26 C         138.3585  140.7130  158.4031 C.ar    1  UNL1        0.0102
     27 C         138.5095  139.8510  159.6214 C.ar    1  UNL1        0.1248
     28 C         137.8997  140.2791  160.9233 C.3     1  UNL1        0.4229
     29 F         137.2899  140.7072  162.2252 F       1  UNL1       -0.1657
     30 F         139.1218  141.0937  161.2280 F       1  UNL1       -0.1657
     31 F         136.6776  139.4646  160.6187 F       1  UNL1       -0.1657
@<TRIPOS>BOND
     1    13    14    1
     2    14    15   ar
     3    15    16   ar
     4    16    17   ar
     5    17    12    1
     6    12     1    1
     7     1     2   ar
     8     2     3   ar
     9     3     4   ar
    10     4     5    2
    11     4     6   ar
    12     6     7   ar
    13     7     8   ar
    14     8    21    1
    15    21    22    1
    16    22    23   ar
    17    23    24   ar
    18    24    25   ar
    19    25    26   ar
    20    26    27   ar
    21    27    28    1
    22    28    29    1
    23    28    30    1
    24    28    31    1
    25     8     9   ar
    26     9    10   ar
    27    10    11   ar
    28    17    18   ar
    29    18    19    1
    30    18    20   ar
    31    20    14   ar
    32    11     1   ar
    33    11     6   ar
    34    27    22   ar
@<TRIPOS>MOLECULE
*****
 31 34 0 0 0
SMALL
GASTEIGER

@<TRIPOS>ATOM
      1 N         143.2866  140.4241  161.5472 N.ar    1  UNL1       -0.3058
      2 C         142.7249  139.3993  160.6068 C.ar    1  UNL1        0.1819
      3 N         141.9911  138.2079  161.1472 N.ar    1  UNL1       -0.1873
      4 C         141.8189  138.0413  162.6279 C.ar    1  UNL1        0.2820
      5 O         141.0850  136.8499  163.1682 O.2     1  UNL1       -0.2651
      6 C         142.3806  139.0661  163.5683 C.ar    1  UNL1        0.0767
      7 C         142.2083  138.8994  165.0490 C.ar    1  UNL1        0.0438
      8 C         142.7700  139.9242  165.9894 C.ar    1  UNL1        0.1474
      9 C         143.5039  141.1156  165.4490 C.ar    1  UNL1        0.0390
     10 C         143.6761  141.2822  163.9683 C.ar    1  UNL1        0.0205
     11 C         143.1144  140.2575  163.0280 C.ar    1  UNL1        0.0662
     12 C         144.0205  141.6155  161.0068 C.3     1  UNL1        0.1365
     13 C         141.0882  145.7327  157.7742 C.3     1  UNL1        0.0311
     14 C         141.8213  144.7034  158.5824 C.ar    1  UNL1       -0.0196
     15 C         142.8843  143.8628  157.9395 C.ar    1  UNL1       -0.0044
     16 C         143.6174  142.8335  158.7476 C.ar    1  UNL1       -0.0005
     17 C         143.2874  142.6448  160.1987 C.ar    1  UNL1        0.0279
     18 C         142.2244  143.4855  160.8416 C.ar    1  UNL1        0.1376
     19 F         141.8945  143.2968  162.2926 F       1  UNL1       -0.2045
     20 C         141.4913  144.5148  160.0334 C.ar    1  UNL1        0.0251
     21 O         142.5978  139.7576  167.4702 O.3     1  UNL1       -0.4362
     22 C         142.2153  140.9345  168.3178 C.ar    1  UNL1        0.2335
     23 N         143.2264  141.5605  169.2322 N.ar    1  UNL1       -0.2099
     24 C         142.8439  142.7374  170.0798 C.ar    1  UNL1        0.1021
     25 C         141.4502  143.2883  170.0132 C.ar    1  UNL1        0.0208
     26 C         140.4392  142.6623  169.0989 C.ar    1  UNL1        0.0102
     27 C         140.8218  141.4854  168.2512 C.ar    1  UNL1        0.1248
     28 C         139.8107  140.8594  167.3369 C.3     1  UNL1        0.4229
     29 F         138.7996  140.2335  166.4226 F       1  UNL1       -0.1657
     30 F         139.5409  139.7980  168.3618 F       1  UNL1       -0.1657
     31 F         140.0805  141.9209  166.3119 F       1  UNL1       -0.1657
@<TRIPOS>BOND
     1    13    14    1
     2    14    15   ar
     3    15    16   ar
     4    16    17   ar
     5    17    12    1
     6    12     1    1
     7     1     2   ar
     8     2     3   ar
     9     3     4   ar
    10     4     5    2
    11     4     6   ar
    12     6     7   ar
    13     7     8   ar
    14     8    21    1
    15    21    22    1
    16    22    23   ar
    17    23    24   ar
    18    24    25   ar
    19    25    26   ar
    20    26    27   ar
    21    27    28    1
    22    28    29    1
    23    28    30    1
    24    28    31    1
    25     8     9   ar
    26     9    10   ar
    27    10    11   ar
    28    17    18   ar
    29    18    19    1
    30    18    20   ar
    31    20    14   ar
    32    11     1   ar
    33    11     6   ar
    34    27    22   ar
