@<TRIPOS>MOLECULE
*****
 43 47 0 0 0
SMALL
GASTEIGER

@<TRIPOS>ATOM
      1 C         140.3734  139.7888  167.1947 C.3     1  UNL1        0.0781
      2 C         138.9141  139.4804  167.0357 C.3     1  UNL1        0.0372
      3 C         138.4369  138.7053  165.8435 C.3     1  UNL1        0.0738
      4 N         139.4189  138.2386  164.8102 N.3     1  UNL1       -0.2725
      5 C         140.8783  138.5470  164.9691 C.3     1  UNL1        0.0738
      6 C         141.3555  139.3220  166.1613 C.3     1  UNL1        0.0372
      7 N         140.8507  140.5638  168.3869 N.am    1  UNL1       -0.2808
      8 C         140.9372  142.0600  168.3232 C.2     1  UNL1        0.2300
      9 O         141.4144  142.8351  169.5154 O.2     1  UNL1       -0.2745
     10 C         142.5835  139.1798  169.7402 C.3     1  UNL1        0.0233
     11 C         141.2415  139.8428  169.6428 C.3     1  UNL1        0.0934
     12 C         140.5463  142.7811  167.0673 C.3     1  UNL1        0.1116
     13 C         141.4490  142.7449  165.8698 C.ar    1  UNL1       -0.0130
     14 C         140.8700  142.8555  164.4905 C.ar    1  UNL1       -0.0025
     15 C         141.7727  142.8193  163.2931 C.ar    1  UNL1        0.0180
     16 C         143.2544  142.6725  163.4750 C.ar    1  UNL1        0.1057
     17 C         143.8334  142.5619  164.8543 C.ar    1  UNL1        0.0180
     18 C         142.9307  142.5981  166.0517 C.ar    1  UNL1       -0.0025
     19 S         144.1571  142.6363  162.2775 S.O2    1  UNL1        0.0104
     20 C         145.0598  142.6001  161.0801 C.3     1  UNL1        0.1816
     21 O         144.4610  141.1930  162.5503 O.2     1  UNL1       -0.1686
     22 O         143.8532  144.0796  162.0048 O.2     1  UNL1       -0.1686
     23 C         138.9416  137.4635  163.6179 C.3     1  UNL1        0.0738
     24 C         138.1621  138.1533  162.5379 C.3     1  UNL1        0.0378
     25 C         138.7963  139.2557  161.7427 C.3     1  UNL1        0.0816
     26 C         138.4690  140.6868  162.0507 C.ar    1  UNL1       -0.0077
     27 C         137.7195  141.0318  163.3034 C.ar    1  UNL1       -0.0030
     28 C         137.3921  142.4628  163.6115 C.ar    1  UNL1       -0.0003
     29 C         137.8143  143.5489  162.6669 C.ar    1  UNL1       -0.0000
     30 C         138.5638  143.2039  161.4143 C.ar    1  UNL1       -0.0003
     31 C         138.8912  141.7728  161.1062 C.ar    1  UNL1       -0.0030
     32 N         139.7579  138.9271  160.6393 N.3     1  UNL1       -0.2673
     33 C         141.2091  138.7087  160.9495 C.3     1  UNL1        0.0940
     34 C         142.1707  138.3801  159.8461 C.3     1  UNL1        0.1081
     35 N         141.6811  138.2699  158.4326 N.pl3   1  UNL1       -0.3046
     36 C         140.2298  138.4883  158.1224 C.3     1  UNL1        0.1081
     37 C         139.2683  138.8169  159.2257 C.3     1  UNL1        0.0940
     38 C         142.6426  137.9413  157.3292 C.ar    1  UNL1        0.0479
     39 C         142.9403  136.5095  156.9955 C.ar    1  UNL1        0.0145
     40 C         143.9019  136.1808  155.8921 C.ar    1  UNL1        0.0013
     41 C         144.5657  137.2840  155.1225 C.ar    1  UNL1        0.0001
     42 C         144.2680  138.7158  155.4562 C.ar    1  UNL1        0.0013
     43 C         143.3065  139.0444  156.5595 C.ar    1  UNL1        0.0145
@<TRIPOS>BOND
     1    10    11    1
     2    11     7    1
     3     7     8   am
     4     8     9    2
     5     8    12    1
     6    12    13    1
     7    13    14   ar
     8    14    15   ar
     9    15    16   ar
    10    16    19    1
    11    19    20    1
    12    19    21    2
    13    19    22    2
    14    16    17   ar
    15    17    18   ar
    16     7     1    1
    17     1     2    1
    18     2     3    1
    19     3     4    1
    20     4    23    1
    21    23    24    1
    22    24    25    1
    23    25    26    1
    24    26    27   ar
    25    27    28   ar
    26    28    29   ar
    27    29    30   ar
    28    30    31   ar
    29    25    32    1
    30    32    33    1
    31    33    34    1
    32    34    35    1
    33    35    38    1
    34    38    39   ar
    35    39    40   ar
    36    40    41   ar
    37    41    42   ar
    38    42    43   ar
    39    35    36    1
    40    36    37    1
    41     4     5    1
    42     5     6    1
    43    18    13   ar
    44     6     1    1
    45    31    26   ar
    46    37    32    1
    47    43    38   ar
@<TRIPOS>MOLECULE
*****
 43 47 0 0 0
SMALL
GASTEIGER

@<TRIPOS>ATOM
      1 C         142.4478  140.3975  167.6825 C.3     1  UNL1        0.0781
      2 C         142.6185  139.5213  166.4771 C.3     1  UNL1        0.0372
      3 C         143.1738  140.0935  165.2066 C.3     1  UNL1        0.0738
      4 N         143.5583  141.5419  165.1414 N.3     1  UNL1       -0.2725
      5 C         143.3876  142.4181  166.3469 C.3     1  UNL1        0.0738
      6 C         142.8323  141.8459  167.6174 C.3     1  UNL1        0.0372
      7 N         141.8925  139.8253  168.9531 N.am    1  UNL1       -0.2808
      8 C         140.4475  140.0304  169.2993 C.2     1  UNL1        0.2300
      9 O         139.8922  139.4582  170.5699 O.2     1  UNL1       -0.2745
     10 C         143.4547  139.7377  171.0271 C.3     1  UNL1        0.0233
     11 C         142.7822  139.0480  169.8773 C.3     1  UNL1        0.0934
     12 C         139.5578  140.8076  168.3751 C.3     1  UNL1        0.1116
     13 C         139.2419  140.2708  167.0105 C.ar    1  UNL1       -0.0130
     14 C         139.3094  141.1743  165.8150 C.ar    1  UNL1       -0.0025
     15 C         138.9936  140.6375  164.4505 C.ar    1  UNL1        0.0180
     16 C         138.6101  139.1972  164.2814 C.ar    1  UNL1        0.1057
     17 C         138.5425  138.2937  165.4769 C.ar    1  UNL1        0.0180
     18 C         138.8584  138.8306  166.8414 C.ar    1  UNL1       -0.0025
     19 S         138.2942  138.6604  162.9168 S.O2    1  UNL1        0.0104
     20 C         137.9783  138.1236  161.5523 C.3     1  UNL1        0.1816
     21 O         138.8866  137.3368  163.3004 O.2     1  UNL1       -0.1686
     22 O         137.7018  139.9840  162.5332 O.2     1  UNL1       -0.1686
     23 C         144.1136  142.1141  163.8709 C.3     1  UNL1        0.0738
     24 C         143.3052  143.0943  163.0736 C.3     1  UNL1        0.0378
     25 C         141.9625  142.6971  162.5357 C.3     1  UNL1        0.0816
     26 C         140.7197  143.3492  163.0650 C.ar    1  UNL1       -0.0077
     27 C         139.4471  143.2918  162.2730 C.ar    1  UNL1       -0.0030
     28 C         138.2043  143.9438  162.8024 C.ar    1  UNL1       -0.0003
     29 C         138.2340  144.6534  164.1236 C.ar    1  UNL1       -0.0000
     30 C         139.5066  144.7108  164.9155 C.ar    1  UNL1       -0.0003
     31 C         140.7495  144.0587  164.3862 C.ar    1  UNL1       -0.0030
     32 N         141.8626  141.6479  161.4684 N.3     1  UNL1       -0.2673
     33 C         142.0776  142.0176  160.0307 C.3     1  UNL1        0.0940
     34 C         141.9776  140.9683  158.9634 C.3     1  UNL1        0.1081
     35 N         141.6627  139.5494  159.3339 N.pl3   1  UNL1       -0.3046
     36 C         141.4477  139.1796  160.7716 C.3     1  UNL1        0.1081
     37 C         141.5477  140.2288  161.8388 C.3     1  UNL1        0.0940
     38 C         141.5628  138.5000  158.2666 C.ar    1  UNL1        0.0479
     39 C         142.7721  137.6971  157.8886 C.ar    1  UNL1        0.0145
     40 C         142.6722  136.6479  156.8214 C.ar    1  UNL1        0.0013
     41 C         141.3630  136.4015  156.1321 C.ar    1  UNL1        0.0001
     42 C         140.1537  137.2044  156.5100 C.ar    1  UNL1        0.0013
     43 C         140.2535  138.2537  157.5773 C.ar    1  UNL1        0.0145
@<TRIPOS>BOND
     1    10    11    1
     2    11     7    1
     3     7     8   am
     4     8     9    2
     5     8    12    1
     6    12    13    1
     7    13    14   ar
     8    14    15   ar
     9    15    16   ar
    10    16    19    1
    11    19    20    1
    12    19    21    2
    13    19    22    2
    14    16    17   ar
    15    17    18   ar
    16     7     1    1
    17     1     2    1
    18     2     3    1
    19     3     4    1
    20     4    23    1
    21    23    24    1
    22    24    25    1
    23    25    26    1
    24    26    27   ar
    25    27    28   ar
    26    28    29   ar
    27    29    30   ar
    28    30    31   ar
    29    25    32    1
    30    32    33    1
    31    33    34    1
    32    34    35    1
    33    35    38    1
    34    38    39   ar
    35    39    40   ar
    36    40    41   ar
    37    41    42   ar
    38    42    43   ar
    39    35    36    1
    40    36    37    1
    41     4     5    1
    42     5     6    1
    43    18    13   ar
    44     6     1    1
    45    31    26   ar
    46    37    32    1
    47    43    38   ar
@<TRIPOS>MOLECULE
*****
 43 47 0 0 0
SMALL
GASTEIGER

@<TRIPOS>ATOM
      1 C         142.9349  141.5694  166.6966 C.3     1  UNL1        0.0781
      2 C         143.7051  142.8074  166.3440 C.3     1  UNL1        0.0372
      3 C         144.4569  142.8793  165.0480 C.3     1  UNL1        0.0738
      4 N         144.4386  141.7133  164.1046 N.3     1  UNL1       -0.2725
      5 C         143.6684  140.4753  164.4572 C.3     1  UNL1        0.0738
      6 C         142.9166  140.4034  165.7531 C.3     1  UNL1        0.0372
      7 N         142.1831  141.4975  167.9926 N.am    1  UNL1       -0.2808
      8 C         140.8468  142.1665  168.1226 C.2     1  UNL1        0.2300
      9 O         140.0950  142.0946  169.4186 O.2     1  UNL1       -0.2745
     10 C         142.4231  139.3133  169.3787 C.3     1  UNL1        0.0233
     11 C         142.7675  140.7565  169.1585 C.3     1  UNL1        0.0934
     12 C         140.2625  142.9075  166.9567 C.3     1  UNL1        0.1116
     13 C         139.6902  142.1485  165.7962 C.ar    1  UNL1       -0.0130
     14 C         139.2441  140.7277  165.9760 C.ar    1  UNL1       -0.0025
     15 C         138.6719  139.9688  164.8156 C.ar    1  UNL1        0.0180
     16 C         138.5457  140.6307  163.4755 C.ar    1  UNL1        0.1057
     17 C         138.9918  142.0515  163.2957 C.ar    1  UNL1        0.0180
     18 C         139.5640  142.8104  164.4561 C.ar    1  UNL1       -0.0025
     19 S         137.9734  139.8717  162.3150 S.O2    1  UNL1        0.0104
     20 C         137.4012  139.1128  161.1546 C.3     1  UNL1        0.1816
     21 O         137.3690  141.1380  161.7849 O.2     1  UNL1       -0.1686
     22 O         138.5778  138.6054  162.8451 O.2     1  UNL1       -0.1686
     23 C         145.1904  141.7853  162.8086 C.3     1  UNL1        0.0738
     24 C         144.7449  142.7330  161.7347 C.3     1  UNL1        0.0378
     25 C         143.3545  142.6379  161.1800 C.3     1  UNL1        0.0816
     26 C         142.3313  143.6743  161.5388 C.ar    1  UNL1       -0.0077
     27 C         141.1309  143.8781  160.6626 C.ar    1  UNL1       -0.0030
     28 C         140.1078  144.9146  161.0214 C.ar    1  UNL1       -0.0003
     29 C         140.2849  145.7474  162.2563 C.ar    1  UNL1       -0.0000
     30 C         141.4852  145.5436  163.1325 C.ar    1  UNL1       -0.0003
     31 C         142.5084  144.5071  162.7738 C.ar    1  UNL1       -0.0030
     32 N         142.9872  141.5063  160.2665 N.3     1  UNL1       -0.2673
     33 C         143.3080  141.5890  158.8035 C.3     1  UNL1        0.0940
     34 C         142.9407  140.4573  157.8900 C.3     1  UNL1        0.1081
     35 N         142.2527  139.2429  158.4395 N.pl3   1  UNL1       -0.3046
     36 C         141.9320  139.1602  159.9025 C.3     1  UNL1        0.1081
     37 C         142.2993  140.2918  160.8160 C.3     1  UNL1        0.0940
     38 C         141.8855  138.1112  157.5260 C.ar    1  UNL1        0.0479
     39 C         142.7866  136.9176  157.4109 C.ar    1  UNL1        0.0145
     40 C         142.4194  135.7859  156.4974 C.ar    1  UNL1        0.0013
     41 C         141.1510  135.8479  155.6991 C.ar    1  UNL1        0.0001
     42 C         140.2499  137.0415  155.8142 C.ar    1  UNL1        0.0013
     43 C         140.6171  138.1732  156.7276 C.ar    1  UNL1        0.0145
@<TRIPOS>BOND
     1    10    11    1
     2    11     7    1
     3     7     8   am
     4     8     9    2
     5     8    12    1
     6    12    13    1
     7    13    14   ar
     8    14    15   ar
     9    15    16   ar
    10    16    19    1
    11    19    20    1
    12    19    21    2
    13    19    22    2
    14    16    17   ar
    15    17    18   ar
    16     7     1    1
    17     1     2    1
    18     2     3    1
    19     3     4    1
    20     4    23    1
    21    23    24    1
    22    24    25    1
    23    25    26    1
    24    26    27   ar
    25    27    28   ar
    26    28    29   ar
    27    29    30   ar
    28    30    31   ar
    29    25    32    1
    30    32    33    1
    31    33    34    1
    32    34    35    1
    33    35    38    1
    34    38    39   ar
    35    39    40   ar
    36    40    41   ar
    37    41    42   ar
    38    42    43   ar
    39    35    36    1
    40    36    37    1
    41     4     5    1
    42     5     6    1
    43    18    13   ar
    44     6     1    1
    45    31    26   ar
    46    37    32    1
    47    43    38   ar
@<TRIPOS>MOLECULE
*****
 43 47 0 0 0
SMALL
GASTEIGER

@<TRIPOS>ATOM
      1 C         140.0589  141.4609  166.7626 C.3     1  UNL1        0.0781
      2 C         140.2740  142.9450  166.7952 C.3     1  UNL1        0.0372
      3 C         139.6114  143.8215  165.7741 C.3     1  UNL1        0.0738
      4 N         138.7335  143.2139  164.7205 N.3     1  UNL1       -0.2725
      5 C         138.5184  141.7297  164.6878 C.3     1  UNL1        0.0738
      6 C         139.1810  140.8532  165.7089 C.3     1  UNL1        0.0372
      7 N         140.7215  140.5844  167.7837 N.am    1  UNL1       -0.2808
      8 C         142.1829  140.2672  167.6648 C.2     1  UNL1        0.2300
      9 O         142.8455  139.3907  168.6859 O.2     1  UNL1       -0.2745
     10 C         139.3084  140.9485  169.9331 C.3     1  UNL1        0.0233
     11 C         139.9230  140.0250  168.9235 C.3     1  UNL1        0.0934
     12 C         142.9814  140.8266  166.5250 C.3     1  UNL1        0.1116
     13 C         142.9865  140.1269  165.1981 C.ar    1  UNL1       -0.0130
     14 C         142.1446  138.9026  164.9927 C.ar    1  UNL1       -0.0025
     15 C         142.1497  138.2030  163.6659 C.ar    1  UNL1        0.0180
     16 C         142.9966  138.7277  162.5445 C.ar    1  UNL1        0.1057
     17 C         143.8385  139.9520  162.7500 C.ar    1  UNL1        0.0180
     18 C         143.8334  140.6516  164.0768 C.ar    1  UNL1       -0.0025
     19 S         143.0016  138.0280  161.2177 S.O2    1  UNL1        0.0104
     20 C         143.0067  137.3283  159.8909 C.3     1  UNL1        0.1816
     21 O         144.2989  138.6960  160.8704 O.2     1  UNL1       -0.1686
     22 O         141.7043  137.3599  161.5650 O.2     1  UNL1       -0.1686
     23 C         138.0709  144.0904  163.6994 C.3     1  UNL1        0.0738
     24 C         138.9030  144.8448  162.7052 C.3     1  UNL1        0.0378
     25 C         139.9024  144.1157  161.8569 C.3     1  UNL1        0.0816
     26 C         141.3618  144.1765  162.1979 C.ar    1  UNL1       -0.0077
     27 C         142.3521  143.3805  161.4005 C.ar    1  UNL1       -0.0030
     28 C         143.8116  143.4413  161.7416 C.ar    1  UNL1       -0.0003
     29 C         144.2807  144.2980  162.8800 C.ar    1  UNL1       -0.0000
     30 C         143.2905  145.0939  163.6773 C.ar    1  UNL1       -0.0003
     31 C         141.8310  145.0332  163.3363 C.ar    1  UNL1       -0.0030
     32 N         139.4424  143.3259  160.6675 N.3     1  UNL1       -0.2673
     33 C         139.6071  143.8862  159.2859 C.3     1  UNL1        0.0940
     34 C         139.1470  143.0963  158.0965 C.3     1  UNL1        0.1081
     35 N         138.5224  141.7462  158.2888 N.pl3   1  UNL1       -0.3046
     36 C         138.3577  141.1860  159.6705 C.3     1  UNL1        0.1081
     37 C         138.8177  141.9758  160.8598 C.3     1  UNL1        0.0940
     38 C         138.0623  140.9563  157.0995 C.ar    1  UNL1        0.0479
     39 C         138.9875  139.9697  156.4510 C.ar    1  UNL1        0.0145
     40 C         138.5276  139.1798  155.2617 C.ar    1  UNL1        0.0013
     41 C         137.1424  139.3766  154.7209 C.ar    1  UNL1        0.0001
     42 C         136.2172  140.3633  155.3693 C.ar    1  UNL1        0.0013
     43 C         136.6772  141.1531  156.5586 C.ar    1  UNL1        0.0145
@<TRIPOS>BOND
     1    10    11    1
     2    11     7    1
     3     7     8   am
     4     8     9    2
     5     8    12    1
     6    12    13    1
     7    13    14   ar
     8    14    15   ar
     9    15    16   ar
    10    16    19    1
    11    19    20    1
    12    19    21    2
    13    19    22    2
    14    16    17   ar
    15    17    18   ar
    16     7     1    1
    17     1     2    1
    18     2     3    1
    19     3     4    1
    20     4    23    1
    21    23    24    1
    22    24    25    1
    23    25    26    1
    24    26    27   ar
    25    27    28   ar
    26    28    29   ar
    27    29    30   ar
    28    30    31   ar
    29    25    32    1
    30    32    33    1
    31    33    34    1
    32    34    35    1
    33    35    38    1
    34    38    39   ar
    35    39    40   ar
    36    40    41   ar
    37    41    42   ar
    38    42    43   ar
    39    35    36    1
    40    36    37    1
    41     4     5    1
    42     5     6    1
    43    18    13   ar
    44     6     1    1
    45    31    26   ar
    46    37    32    1
    47    43    38   ar
@<TRIPOS>MOLECULE
*****
 43 47 0 0 0
SMALL
GASTEIGER

@<TRIPOS>ATOM
      1 C         142.6799  139.3644  159.4258 C.3     1  UNL1        0.0781
      2 C         143.0552  139.0013  160.8320 C.3     1  UNL1        0.0372
      3 C         143.8519  139.9594  161.6669 C.3     1  UNL1        0.0738
      4 N         144.2734  141.2808  161.0957 N.3     1  UNL1       -0.2725
      5 C         143.8982  141.6440  159.6894 C.3     1  UNL1        0.0738
      6 C         143.1014  140.6858  158.8545 C.3     1  UNL1        0.0372
      7 N         141.8832  138.4062  158.5909 N.am    1  UNL1       -0.2808
      8 C         140.3904  138.5359  158.5192 C.2     1  UNL1        0.2300
      9 O         139.5937  137.5777  157.6843 O.2     1  UNL1       -0.2745
     10 C         142.9604  137.5347  156.3933 C.3     1  UNL1        0.0233
     11 C         142.5790  137.3185  157.8278 C.3     1  UNL1        0.0934
     12 C         139.6946  139.6237  159.2824 C.3     1  UNL1        0.1116
     13 C         139.3701  139.4317  160.7343 C.ar    1  UNL1       -0.0130
     14 C         138.8649  140.5855  161.5488 C.ar    1  UNL1       -0.0025
     15 C         138.5405  140.3936  163.0006 C.ar    1  UNL1        0.0180
     16 C         138.7213  139.0478  163.6379 C.ar    1  UNL1        0.1057
     17 C         139.2266  137.8940  162.8235 C.ar    1  UNL1        0.0180
     18 C         139.5510  138.0860  161.3716 C.ar    1  UNL1       -0.0025
     19 S         138.3969  138.8559  165.0899 S.O2    1  UNL1        0.0104
     20 C         138.0725  138.6639  166.5417 C.3     1  UNL1        0.1816
     21 O         138.8648  137.4332  165.0063 O.2     1  UNL1       -0.1686
     22 O         137.9289  140.2785  165.1734 O.2     1  UNL1       -0.1686
     23 C         145.0702  142.2389  161.9306 C.3     1  UNL1        0.0738
     24 C         144.4843  143.5651  162.3152 C.3     1  UNL1        0.0378
     25 C         143.0825  143.6408  162.8436 C.3     1  UNL1        0.0816
     26 C         142.0370  144.4076  162.0892 C.ar    1  UNL1       -0.0077
     27 C         141.9123  144.2430  160.6034 C.ar    1  UNL1       -0.0030
     28 C         140.8669  145.0097  159.8490 C.ar    1  UNL1       -0.0003
     29 C         139.9461  145.9410  160.5803 C.ar    1  UNL1       -0.0000
     30 C         140.0708  146.1057  162.0660 C.ar    1  UNL1       -0.0003
     31 C         141.1163  145.3389  162.8205 C.ar    1  UNL1       -0.0030
     32 N         142.7261  142.9499  164.1263 N.3     1  UNL1       -0.2673
     33 C         143.6307  143.0659  165.3172 C.3     1  UNL1        0.0940
     34 C         143.2742  142.3749  166.6000 C.3     1  UNL1        0.1081
     35 N         142.0133  141.5678  166.6918 N.pl3   1  UNL1       -0.3046
     36 C         141.1086  141.4517  165.5009 C.3     1  UNL1        0.1081
     37 C         141.4650  142.1427  164.2182 C.3     1  UNL1        0.0940
     38 C         141.6568  140.8768  167.9746 C.ar    1  UNL1        0.0479
     39 C         140.3055  141.0888  168.5904 C.ar    1  UNL1        0.0145
     40 C         139.9491  140.3978  169.8731 C.ar    1  UNL1        0.0013
     41 C         140.9438  139.4948  170.5401 C.ar    1  UNL1        0.0001
     42 C         142.2951  139.2828  169.9243 C.ar    1  UNL1        0.0013
     43 C         142.6516  139.9738  168.6416 C.ar    1  UNL1        0.0145
@<TRIPOS>BOND
     1    10    11    1
     2    11     7    1
     3     7     8   am
     4     8     9    2
     5     8    12    1
     6    12    13    1
     7    13    14   ar
     8    14    15   ar
     9    15    16   ar
    10    16    19    1
    11    19    20    1
    12    19    21    2
    13    19    22    2
    14    16    17   ar
    15    17    18   ar
    16     7     1    1
    17     1     2    1
    18     2     3    1
    19     3     4    1
    20     4    23    1
    21    23    24    1
    22    24    25    1
    23    25    26    1
    24    26    27   ar
    25    27    28   ar
    26    28    29   ar
    27    29    30   ar
    28    30    31   ar
    29    25    32    1
    30    32    33    1
    31    33    34    1
    32    34    35    1
    33    35    38    1
    34    38    39   ar
    35    39    40   ar
    36    40    41   ar
    37    41    42   ar
    38    42    43   ar
    39    35    36    1
    40    36    37    1
    41     4     5    1
    42     5     6    1
    43    18    13   ar
    44     6     1    1
    45    31    26   ar
    46    37    32    1
    47    43    38   ar
@<TRIPOS>MOLECULE
*****
 43 47 0 0 0
SMALL
GASTEIGER

@<TRIPOS>ATOM
      1 C         143.8169  142.7939  158.8625 C.3     1  UNL1        0.0781
      2 C         143.9269  142.7533  160.3579 C.3     1  UNL1        0.0372
      3 C         142.9879  143.5639  161.2013 C.3     1  UNL1        0.0738
      4 N         141.9390  144.4150  160.5494 N.3     1  UNL1       -0.2725
      5 C         141.8289  144.4557  159.0539 C.3     1  UNL1        0.0738
      6 C         142.7679  143.6451  158.2105 C.3     1  UNL1        0.0372
      7 N         144.7558  141.9833  158.0191 N.am    1  UNL1       -0.2808
      8 C         144.3185  140.6559  157.4742 C.2     1  UNL1        0.2300
      9 O         145.2574  139.8453  156.6308 O.2     1  UNL1       -0.2745
     10 C         146.5888  142.6390  156.2987 C.3     1  UNL1        0.0233
     11 C         146.1320  142.5000  157.7207 C.3     1  UNL1        0.0934
     12 C         142.9423  140.1391  157.7726 C.3     1  UNL1        0.1116
     13 C         142.6406  139.5406  159.1146 C.ar    1  UNL1       -0.0130
     14 C         143.7618  139.1043  160.0104 C.ar    1  UNL1       -0.0025
     15 C         143.4600  138.5058  161.3523 C.ar    1  UNL1        0.0180
     16 C         142.0371  138.3436  161.7984 C.ar    1  UNL1        0.1057
     17 C         140.9159  138.7799  160.9025 C.ar    1  UNL1        0.0180
     18 C         141.2177  139.3784  159.5607 C.ar    1  UNL1       -0.0025
     19 S         141.7354  137.7451  163.1403 S.O2    1  UNL1        0.0104
     20 C         141.4337  137.1466  164.4823 C.3     1  UNL1        0.1816
     21 O         143.0173  138.3073  163.6793 O.2     1  UNL1       -0.1686
     22 O         140.4535  137.1828  162.6014 O.2     1  UNL1       -0.1686
     23 C         141.0000  145.2256  161.3928 C.3     1  UNL1        0.0738
     24 C         139.6809  144.6484  161.8128 C.3     1  UNL1        0.0378
     25 C         139.5896  143.2097  162.2275 C.3     1  UNL1        0.0816
     26 C         138.9242  142.2107  161.3280 C.ar    1  UNL1       -0.0077
     27 C         139.0203  142.3615  159.8386 C.ar    1  UNL1       -0.0030
     28 C         138.3549  141.3625  158.9392 C.ar    1  UNL1       -0.0003
     29 C         137.5934  140.2126  159.5289 C.ar    1  UNL1       -0.0000
     30 C         137.4973  140.0617  161.0182 C.ar    1  UNL1       -0.0003
     31 C         138.1627  141.0608  161.9178 C.ar    1  UNL1       -0.0030
     32 N         140.1638  142.7701  163.5416 N.3     1  UNL1       -0.2673
     33 C         141.1740  141.6622  163.5857 C.3     1  UNL1        0.0940
     34 C         141.7482  141.2226  164.8999 C.3     1  UNL1        0.1081
     35 N         141.3121  141.8909  166.1700 N.pl3   1  UNL1       -0.3046
     36 C         140.3018  142.9988  166.1260 C.3     1  UNL1        0.1081
     37 C         139.7277  143.4384  164.8118 C.3     1  UNL1        0.0940
     38 C         141.8863  141.4513  167.4843 C.ar    1  UNL1        0.0479
     39 C         141.5328  140.1055  168.0445 C.ar    1  UNL1        0.0145
     40 C         142.1069  139.6658  169.3587 C.ar    1  UNL1        0.0013
     41 C         143.0345  140.5720  170.1126 C.ar    1  UNL1        0.0001
     42 C         143.3879  141.9178  169.5524 C.ar    1  UNL1        0.0013
     43 C         142.8138  142.3575  168.2382 C.ar    1  UNL1        0.0145
@<TRIPOS>BOND
     1    10    11    1
     2    11     7    1
     3     7     8   am
     4     8     9    2
     5     8    12    1
     6    12    13    1
     7    13    14   ar
     8    14    15   ar
     9    15    16   ar
    10    16    19    1
    11    19    20    1
    12    19    21    2
    13    19    22    2
    14    16    17   ar
    15    17    18   ar
    16     7     1    1
    17     1     2    1
    18     2     3    1
    19     3     4    1
    20     4    23    1
    21    23    24    1
    22    24    25    1
    23    25    26    1
    24    26    27   ar
    25    27    28   ar
    26    28    29   ar
    27    29    30   ar
    28    30    31   ar
    29    25    32    1
    30    32    33    1
    31    33    34    1
    32    34    35    1
    33    35    38    1
    34    38    39   ar
    35    39    40   ar
    36    40    41   ar
    37    41    42   ar
    38    42    43   ar
    39    35    36    1
    40    36    37    1
    41     4     5    1
    42     5     6    1
    43    18    13   ar
    44     6     1    1
    45    31    26   ar
    46    37    32    1
    47    43    38   ar
@<TRIPOS>MOLECULE
*****
 43 47 0 0 0
SMALL
GASTEIGER

@<TRIPOS>ATOM
      1 C         141.4258  144.2012  159.0365 C.3     1  UNL1        0.0781
      2 C         141.2532  144.6490  160.4576 C.3     1  UNL1        0.0372
      3 C         142.3207  144.3583  161.4705 C.3     1  UNL1        0.0738
      4 N         143.5608  143.6198  161.0623 N.3     1  UNL1       -0.2725
      5 C         143.7335  143.1720  159.6411 C.3     1  UNL1        0.0738
      6 C         142.6660  143.4627  158.6282 C.3     1  UNL1        0.0372
      7 N         140.3583  144.4919  158.0236 N.am    1  UNL1       -0.2808
      8 C         139.5088  143.3775  157.4885 C.2     1  UNL1        0.2300
      9 O         138.4413  143.6681  156.4756 O.2     1  UNL1       -0.2745
     10 C         140.6374  146.3149  156.1937 C.3     1  UNL1        0.0233
     11 C         140.1404  145.8969  157.5458 C.3     1  UNL1        0.0934
     12 C         139.7267  141.9724  157.9662 C.3     1  UNL1        0.1116
     13 C         139.3997  141.6027  159.3828 C.ar    1  UNL1       -0.0130
     14 C         140.0886  140.4393  160.0323 C.ar    1  UNL1       -0.0025
     15 C         139.7617  140.0696  161.4488 C.ar    1  UNL1        0.0180
     16 C         138.7458  140.8633  162.2157 C.ar    1  UNL1        0.1057
     17 C         138.0569  142.0266  161.5661 C.ar    1  UNL1        0.0180
     18 C         138.3839  142.3963  160.1497 C.ar    1  UNL1       -0.0025
     19 S         138.4189  140.4936  163.6322 S.O2    1  UNL1        0.0104
     20 C         138.0920  140.1238  165.0487 C.3     1  UNL1        0.1816
     21 O         139.5459  139.5038  163.6339 O.2     1  UNL1       -0.1686
     22 O         137.2918  141.4833  163.6305 O.2     1  UNL1       -0.1686
     23 C         144.6283  143.3291  162.0752 C.3     1  UNL1        0.0738
     24 C         144.9455  141.9103  162.4444 C.3     1  UNL1        0.0378
     25 C         143.8381  140.9606  162.7931 C.3     1  UNL1        0.0816
     26 C         143.4789  139.8493  161.8519 C.ar    1  UNL1       -0.0077
     27 C         143.7512  139.9924  160.3837 C.ar    1  UNL1       -0.0030
     28 C         143.3921  138.8811  159.4424 C.ar    1  UNL1       -0.0003
     29 C         142.7607  137.6266  159.9693 C.ar    1  UNL1       -0.0000
     30 C         142.4884  137.4834  161.4374 C.ar    1  UNL1       -0.0003
     31 C         142.8475  138.5948  162.3787 C.ar    1  UNL1       -0.0030
     32 N         143.0898  141.1221  164.0830 N.3     1  UNL1       -0.2673
     33 C         141.9178  142.0553  164.1584 C.3     1  UNL1        0.0940
     34 C         141.1695  142.2168  165.4484 C.3     1  UNL1        0.1081
     35 N         141.5932  141.4451  166.6629 N.pl3   1  UNL1       -0.3046
     36 C         142.7651  140.5120  166.5875 C.3     1  UNL1        0.1081
     37 C         143.5134  140.3504  165.2976 C.3     1  UNL1        0.0940
     38 C         140.8449  141.6067  167.9529 C.ar    1  UNL1        0.0479
     39 C         140.0375  140.4667  168.4994 C.ar    1  UNL1        0.0145
     40 C         139.2893  140.6281  169.7894 C.ar    1  UNL1        0.0013
     41 C         139.3483  141.9296  170.5328 C.ar    1  UNL1        0.0001
     42 C         140.1557  143.0695  169.9863 C.ar    1  UNL1        0.0013
     43 C         140.9039  142.9081  168.6964 C.ar    1  UNL1        0.0145
@<TRIPOS>BOND
     1    10    11    1
     2    11     7    1
     3     7     8   am
     4     8     9    2
     5     8    12    1
     6    12    13    1
     7    13    14   ar
     8    14    15   ar
     9    15    16   ar
    10    16    19    1
    11    19    20    1
    12    19    21    2
    13    19    22    2
    14    16    17   ar
    15    17    18   ar
    16     7     1    1
    17     1     2    1
    18     2     3    1
    19     3     4    1
    20     4    23    1
    21    23    24    1
    22    24    25    1
    23    25    26    1
    24    26    27   ar
    25    27    28   ar
    26    28    29   ar
    27    29    30   ar
    28    30    31   ar
    29    25    32    1
    30    32    33    1
    31    33    34    1
    32    34    35    1
    33    35    38    1
    34    38    39   ar
    35    39    40   ar
    36    40    41   ar
    37    41    42   ar
    38    42    43   ar
    39    35    36    1
    40    36    37    1
    41     4     5    1
    42     5     6    1
    43    18    13   ar
    44     6     1    1
    45    31    26   ar
    46    37    32    1
    47    43    38   ar
@<TRIPOS>MOLECULE
*****
 43 47 0 0 0
SMALL
GASTEIGER

@<TRIPOS>ATOM
      1 C         141.0524  140.2270  158.0661 C.3     1  UNL1        0.0781
      2 C         141.2785  139.6265  159.4219 C.3     1  UNL1        0.0372
      3 C         142.3824  140.1431  160.2964 C.3     1  UNL1        0.0738
      4 N         143.2600  141.2602  159.8151 N.3     1  UNL1       -0.2725
      5 C         143.0339  141.8608  158.4592 C.3     1  UNL1        0.0738
      6 C         141.9301  141.3442  157.5848 C.3     1  UNL1        0.0372
      7 N         139.9486  139.7105  157.1916 N.am    1  UNL1       -0.2808
      8 C         138.5732  140.3007  157.2926 C.2     1  UNL1        0.2300
      9 O         137.4694  139.7841  156.4181 O.2     1  UNL1       -0.2745
     10 C         140.9375  138.8953  154.9317 C.3     1  UNL1        0.0233
     11 C         140.2200  138.6037  156.2163 C.3     1  UNL1        0.0934
     12 C         138.3017  141.4074  158.2679 C.3     1  UNL1        0.1116
     13 C         138.2898  141.1231  159.7407 C.ar    1  UNL1       -0.0130
     14 C         138.8125  142.1451  160.7062 C.ar    1  UNL1       -0.0025
     15 C         138.8005  141.8607  162.1789 C.ar    1  UNL1        0.0180
     16 C         138.2659  140.5543  162.6861 C.ar    1  UNL1        0.1057
     17 C         137.7431  139.5322  161.7207 C.ar    1  UNL1        0.0180
     18 C         137.7551  139.8166  160.2480 C.ar    1  UNL1       -0.0025
     19 S         138.2539  140.2699  164.1589 S.O2    1  UNL1        0.0104
     20 C         138.2420  139.9856  165.6317 C.3     1  UNL1        0.1816
     21 O         137.9904  141.7202  164.4368 O.2     1  UNL1       -0.1686
     22 O         138.5174  138.8197  163.8811 O.2     1  UNL1       -0.1686
     23 C         144.3639  141.7768  160.6896 C.3     1  UNL1        0.0738
     24 C         144.2439  143.1283  161.3291 C.3     1  UNL1        0.0378
     25 C         143.0782  143.4347  162.2220 C.3     1  UNL1        0.0816
     26 C         141.9674  144.3143  161.7298 C.ar    1  UNL1       -0.0077
     27 C         141.7112  144.4461  160.2577 C.ar    1  UNL1       -0.0030
     28 C         140.6003  145.3257  159.7656 C.ar    1  UNL1       -0.0003
     29 C         139.7456  146.0736  160.7455 C.ar    1  UNL1       -0.0000
     30 C         140.0018  145.9418  162.2175 C.ar    1  UNL1       -0.0003
     31 C         141.1127  145.0622  162.7097 C.ar    1  UNL1       -0.0030
     32 N         143.0234  142.8616  163.6070 N.3     1  UNL1       -0.2673
     33 C         142.0984  141.7204  163.9104 C.3     1  UNL1        0.0940
     34 C         142.0436  141.1472  165.2956 C.3     1  UNL1        0.1081
     35 N         142.9138  141.7153  166.3773 N.pl3   1  UNL1       -0.3046
     36 C         143.8388  142.8564  166.0739 C.3     1  UNL1        0.1081
     37 C         143.8937  143.4296  164.6888 C.3     1  UNL1        0.0940
     38 C         142.8590  141.1421  167.7624 C.ar    1  UNL1        0.0479
     39 C         143.0887  142.0285  168.9505 C.ar    1  UNL1        0.0145
     40 C         143.0339  141.4555  170.3356 C.ar    1  UNL1        0.0013
     41 C         142.7495  139.9959  170.5326 C.ar    1  UNL1        0.0001
     42 C         142.5198  139.1095  169.3445 C.ar    1  UNL1        0.0013
     43 C         142.5746  139.6826  167.9594 C.ar    1  UNL1        0.0145
@<TRIPOS>BOND
     1    10    11    1
     2    11     7    1
     3     7     8   am
     4     8     9    2
     5     8    12    1
     6    12    13    1
     7    13    14   ar
     8    14    15   ar
     9    15    16   ar
    10    16    19    1
    11    19    20    1
    12    19    21    2
    13    19    22    2
    14    16    17   ar
    15    17    18   ar
    16     7     1    1
    17     1     2    1
    18     2     3    1
    19     3     4    1
    20     4    23    1
    21    23    24    1
    22    24    25    1
    23    25    26    1
    24    26    27   ar
    25    27    28   ar
    26    28    29   ar
    27    29    30   ar
    28    30    31   ar
    29    25    32    1
    30    32    33    1
    31    33    34    1
    32    34    35    1
    33    35    38    1
    34    38    39   ar
    35    39    40   ar
    36    40    41   ar
    37    41    42   ar
    38    42    43   ar
    39    35    36    1
    40    36    37    1
    41     4     5    1
    42     5     6    1
    43    18    13   ar
    44     6     1    1
    45    31    26   ar
    46    37    32    1
    47    43    38   ar
@<TRIPOS>MOLECULE
*****
 43 47 0 0 0
SMALL
GASTEIGER

@<TRIPOS>ATOM
      1 C         143.9273  141.1947  158.9311 C.3     1  UNL1        0.0781
      2 C         144.1193  141.5428  160.3775 C.3     1  UNL1        0.0372
      3 C         143.9266  140.4947  161.4331 C.3     1  UNL1        0.0738
      4 N         143.5418  139.0986  161.0425 N.3     1  UNL1       -0.2725
      5 C         143.3498  138.7504  159.5961 C.3     1  UNL1        0.0738
      6 C         143.5425  139.7985  158.5404 C.3     1  UNL1        0.0372
      7 N         144.1200  142.2428  157.8755 N.am    1  UNL1       -0.2808
      8 C         142.9312  142.9480  157.2929 C.2     1  UNL1        0.2300
      9 O         143.1239  143.9961  156.2372 O.2     1  UNL1       -0.2745
     10 C         146.1684  141.7393  156.3588 C.3     1  UNL1        0.0233
     11 C         145.5015  142.5856  157.4024 C.3     1  UNL1        0.0934
     12 C         141.5497  142.6052  157.7660 C.3     1  UNL1        0.1116
     13 C         141.0637  143.1114  159.0918 C.ar    1  UNL1       -0.0130
     14 C         140.3921  142.1748  160.0518 C.ar    1  UNL1       -0.0025
     15 C         139.9062  142.6811  161.3775 C.ar    1  UNL1        0.0180
     16 C         140.0919  144.1239  161.7433 C.ar    1  UNL1        0.1057
     17 C         140.7636  145.0605  160.7833 C.ar    1  UNL1        0.0180
     18 C         141.2495  144.5542  159.4575 C.ar    1  UNL1       -0.0025
     19 S         139.6060  144.6301  163.0691 S.O2    1  UNL1        0.0104
     20 C         139.1201  145.1363  164.3948 C.3     1  UNL1        0.1816
     21 O         141.0157  144.6416  163.5813 O.2     1  UNL1       -0.1686
     22 O         138.1963  144.6186  162.5568 O.2     1  UNL1       -0.1686
     23 C         143.3491  138.0505  162.0981 C.3     1  UNL1        0.0738
     24 C         141.9663  137.6922  162.5556 C.3     1  UNL1        0.0378
     25 C         140.9990  138.7732  162.9376 C.3     1  UNL1        0.0816
     26 C         139.8232  139.0733  162.0560 C.ar    1  UNL1       -0.0077
     27 C         138.5632  139.6299  162.6500 C.ar    1  UNL1       -0.0030
     28 C         137.3873  139.9300  161.7684 C.ar    1  UNL1       -0.0003
     29 C         137.4713  139.6735  160.2929 C.ar    1  UNL1       -0.0000
     30 C         138.7313  139.1169  159.6989 C.ar    1  UNL1       -0.0003
     31 C         139.9072  138.8168  160.5805 C.ar    1  UNL1       -0.0030
     32 N         141.2077  139.5541  164.2012 N.3     1  UNL1       -0.2673
     33 C         141.5248  141.0187  164.1340 C.3     1  UNL1        0.0940
     34 C         141.7334  141.7996  165.3977 C.3     1  UNL1        0.1081
     35 N         141.6249  141.1160  166.7284 N.pl3   1  UNL1       -0.3046
     36 C         141.3078  139.6514  166.7955 C.3     1  UNL1        0.1081
     37 C         141.0991  138.8705  165.5320 C.3     1  UNL1        0.0940
     38 C         141.8335  141.8969  167.9920 C.ar    1  UNL1        0.0479
     39 C         143.1545  141.8385  168.7003 C.ar    1  UNL1        0.0145
     40 C         143.3632  142.6194  169.9638 C.ar    1  UNL1        0.0013
     41 C         142.2509  143.4586  170.5192 C.ar    1  UNL1        0.0001
     42 C         140.9299  143.5169  169.8109 C.ar    1  UNL1        0.0013
     43 C         140.7212  142.7361  168.5473 C.ar    1  UNL1        0.0145
@<TRIPOS>BOND
     1    10    11    1
     2    11     7    1
     3     7     8   am
     4     8     9    2
     5     8    12    1
     6    12    13    1
     7    13    14   ar
     8    14    15   ar
     9    15    16   ar
    10    16    19    1
    11    19    20    1
    12    19    21    2
    13    19    22    2
    14    16    17   ar
    15    17    18   ar
    16     7     1    1
    17     1     2    1
    18     2     3    1
    19     3     4    1
    20     4    23    1
    21    23    24    1
    22    24    25    1
    23    25    26    1
    24    26    27   ar
    25    27    28   ar
    26    28    29   ar
    27    29    30   ar
    28    30    31   ar
    29    25    32    1
    30    32    33    1
    31    33    34    1
    32    34    35    1
    33    35    38    1
    34    38    39   ar
    35    39    40   ar
    36    40    41   ar
    37    41    42   ar
    38    42    43   ar
    39    35    36    1
    40    36    37    1
    41     4     5    1
    42     5     6    1
    43    18    13   ar
    44     6     1    1
    45    31    26   ar
    46    37    32    1
    47    43    38   ar
