@<TRIPOS>MOLECULE
*****
 45 48 0 0 0
SMALL
GASTEIGER

@<TRIPOS>ATOM
      1 C         141.4673  140.8552  162.3376 C.3     1  UNL1        0.0808
      2 C         141.4240  140.6429  163.8219 C.ar    1  UNL1        0.0375
      3 C         141.0963  141.7878  164.7340 C.ar    1  UNL1        0.0023
      4 C         141.0530  141.5756  166.2182 C.ar    1  UNL1        0.0183
      5 C         140.7254  142.7205  167.1303 C.ar    1  UNL1        0.0118
      6 C         140.6821  142.5082  168.6146 C.ar    1  UNL1        0.0685
      7 C         140.9664  141.1511  169.1868 C.ar    1  UNL1        0.0118
      8 C         141.2941  140.0063  168.2747 C.ar    1  UNL1        0.0199
      9 C         141.3374  140.2185  166.7905 C.ar    1  UNL1        0.0844
     10 N         141.6651  139.0736  165.8784 N.ar    1  UNL1       -0.2119
     11 C         141.7084  139.2859  164.3941 C.ar    1  UNL1        0.2211
     12 C         140.3544  143.6531  169.5267 C.1     1  UNL1        0.1004
     13 N         140.0267  144.7980  170.4388 N.1     1  UNL1       -0.1908
     14 O         142.0360  138.1410  163.4820 O.3     1  UNL1       -0.4563
     15 C         141.0062  137.0869  163.2017 C.3     1  UNL1        0.2542
     16 C         140.4023  140.2618  161.4637 C.ar    1  UNL1        0.0245
     17 C         138.9552  140.4678  161.8002 C.ar    1  UNL1        0.0200
     18 C         137.8901  139.8744  160.9263 C.ar    1  UNL1        0.1019
     19 N         138.2723  139.0750  159.7160 N.ar    1  UNL1       -0.2076
     20 C         139.7196  138.8690  159.3795 C.ar    1  UNL1        0.2598
     21 C         140.7845  139.4624  160.2534 C.ar    1  UNL1        0.1879
     22 O         140.1017  138.0697  158.1692 O.3     1  UNL1       -0.4541
     23 C         139.6325  138.4963  156.8098 C.3     1  UNL1        0.2543
     24 O         142.2317  139.2565  159.9169 O.3     1  UNL1       -0.4670
     25 C         142.8581  137.9052  160.0948 C.3     1  UNL1        0.2527
     26 C         142.5756  141.6609  161.7272 C.3     1  UNL1        0.1160
     27 O         143.5704  140.6308  162.1738 O.3     1  UNL1       -0.3820
     28 H         144.4605  140.9000  161.8979 H       1  UNL1        0.2107
     29 C         139.7745  144.4696  161.8493 C.ar    1  UNL1        0.1070
     30 C         140.7693  143.4395  162.2959 C.ar    1  UNL1        0.0235
     31 C         141.5809  142.6909  161.2806 C.ar    1  UNL1        0.0064
     32 C         141.3977  142.9724  159.8187 C.ar    1  UNL1        0.0235
     33 C         140.4030  144.0025  159.3721 C.ar    1  UNL1        0.1070
     34 N         139.5914  144.7511  160.3874 N.ar    1  UNL1       -0.2330
     35 S         138.9629  145.2182  162.8647 S.3     1  UNL1       -0.0950
     36 C         138.5448  144.9127  165.4106 C.3     1  UNL1        0.0130
     37 C         138.3084  144.4794  163.9942 C.3     1  UNL1        0.0637
     38 S         140.2198  144.2839  157.9101 S.3     1  UNL1       -0.0950
     39 C         140.6702  145.5947  157.3366 C.3     1  UNL1        0.0637
     40 C         142.1200  145.9763  157.3857 C.3     1  UNL1        0.0130
     41 C         143.6839  142.4665  161.1168 C.3     1  UNL1        0.0491
     42 C         144.7544  143.0516  161.9896 C.3     1  UNL1        0.0750
     43 N         144.4086  143.5738  163.3526 N.3     1  UNL1       -0.2702
     44 C         143.7695  144.9229  163.4989 C.3     1  UNL1        0.0897
     45 C         144.7020  142.7470  164.5692 C.3     1  UNL1        0.0897
@<TRIPOS>BOND
     1    36    37    1
     2    37    35    1
     3    35    29    1
     4    29    30   ar
     5    30    31   ar
     6    31    26    1
     7    26    27    1
     8    26    41    1
     9    41    42    1
    10    42    43    1
    11    43    44    1
    12    43    45    1
    13    26     1    1
    14     1     2    1
    15     2     3   ar
    16     3     4   ar
    17     4     5   ar
    18     5     6   ar
    19     6    12    1
    20    12    13    3
    21     6     7   ar
    22     7     8   ar
    23     8     9   ar
    24     9    10   ar
    25    10    11   ar
    26    11    14    1
    27    14    15    1
    28     1    16    1
    29    16    17   ar
    30    17    18   ar
    31    18    19   ar
    32    19    20   ar
    33    20    22    1
    34    22    23    1
    35    20    21   ar
    36    21    24    1
    37    24    25    1
    38    31    32   ar
    39    32    33   ar
    40    33    38    1
    41    38    39    1
    42    39    40    1
    43    33    34   ar
    44    34    29   ar
    45    11     2   ar
    46    21    16   ar
    47     9     4   ar
    48    27    28    1
@<TRIPOS>MOLECULE
*****
 45 48 0 0 0
SMALL
GASTEIGER

@<TRIPOS>ATOM
      1 C         141.3769  140.8364  162.3400 C.3     1  UNL1        0.0808
      2 C         141.3667  140.6387  163.8270 C.ar    1  UNL1        0.0375
      3 C         141.0371  141.7869  164.7340 C.ar    1  UNL1        0.0023
      4 C         141.0269  141.5892  166.2209 C.ar    1  UNL1        0.0183
      5 C         140.6972  142.7375  167.1279 C.ar    1  UNL1        0.0118
      6 C         140.6870  142.5398  168.6148 C.ar    1  UNL1        0.0685
      7 C         141.0065  141.1938  169.1946 C.ar    1  UNL1        0.0118
      8 C         141.3361  140.0455  168.2876 C.ar    1  UNL1        0.0199
      9 C         141.3463  140.2432  166.8007 C.ar    1  UNL1        0.0844
     10 N         141.6759  139.0949  165.8937 N.ar    1  UNL1       -0.2119
     11 C         141.6861  139.2927  164.4067 C.ar    1  UNL1        0.2211
     12 C         140.3574  143.6881  169.5219 C.1     1  UNL1        0.1004
     13 N         140.0278  144.8364  170.4290 N.1     1  UNL1       -0.1908
     14 O         142.0158  138.1444  163.4997 O.3     1  UNL1       -0.4563
     15 C         141.0017  137.0662  163.2558 C.3     1  UNL1        0.2542
     16 C         140.2649  140.2792  161.5017 C.ar    1  UNL1        0.0245
     17 C         138.8372  140.5216  161.8925 C.ar    1  UNL1        0.0200
     18 C         137.7251  139.9644  161.0541 C.ar    1  UNL1        0.1019
     19 N         138.0408  139.1647  159.8250 N.ar    1  UNL1       -0.2076
     20 C         139.4686  138.9223  159.4341 C.ar    1  UNL1        0.2598
     21 C         140.5806  139.4795  160.2725 C.ar    1  UNL1        0.1879
     22 O         139.7843  138.1227  158.2050 O.3     1  UNL1       -0.4541
     23 C         140.0158  138.8186  156.8964 C.3     1  UNL1        0.2543
     24 O         142.0083  139.2371  159.8817 O.3     1  UNL1       -0.4670
     25 C         142.6042  137.8685  160.0290 C.3     1  UNL1        0.2527
     26 C         142.4991  141.5914  161.6915 C.3     1  UNL1        0.1160
     27 O         143.4663  140.5336  162.1337 O.3     1  UNL1       -0.3820
     28 H         144.3590  140.7659  161.8337 H       1  UNL1        0.2107
     29 C         140.3078  143.9246  159.3455 C.ar    1  UNL1        0.1070
     30 C         141.2749  142.8668  159.7877 C.ar    1  UNL1        0.0235
     31 C         141.5320  142.6493  161.2494 C.ar    1  UNL1        0.0064
     32 C         140.8218  143.4896  162.2689 C.ar    1  UNL1        0.0235
     33 C         139.8546  144.5474  161.8267 C.ar    1  UNL1        0.1070
     34 N         139.5976  144.7649  160.3650 N.ar    1  UNL1       -0.2330
     35 S         140.0508  144.1421  157.8837 S.3     1  UNL1       -0.0950
     36 C         138.1315  142.3916  157.9302 C.3     1  UNL1        0.0130
     37 C         139.0684  143.2718  157.1573 C.3     1  UNL1        0.0637
     38 S         139.1444  145.3878  162.8463 S.3     1  UNL1       -0.0950
     39 C         138.9213  144.8573  164.2315 C.3     1  UNL1        0.0637
     40 C         137.9115  143.7733  164.4659 C.3     1  UNL1        0.0130
     41 C         143.6214  142.3464  161.0431 C.3     1  UNL1        0.0491
     42 C         144.7340  142.9027  161.8813 C.3     1  UNL1        0.0750
     43 N         144.4352  143.4961  163.2262 N.3     1  UNL1       -0.2702
     44 C         144.6869  142.6977  164.4708 C.3     1  UNL1        0.0897
     45 C         143.8849  144.8878  163.3263 C.3     1  UNL1        0.0897
@<TRIPOS>BOND
     1    36    37    1
     2    37    35    1
     3    35    29    1
     4    29    30   ar
     5    30    31   ar
     6    31    26    1
     7    26    27    1
     8    26    41    1
     9    41    42    1
    10    42    43    1
    11    43    44    1
    12    43    45    1
    13    26     1    1
    14     1     2    1
    15     2     3   ar
    16     3     4   ar
    17     4     5   ar
    18     5     6   ar
    19     6    12    1
    20    12    13    3
    21     6     7   ar
    22     7     8   ar
    23     8     9   ar
    24     9    10   ar
    25    10    11   ar
    26    11    14    1
    27    14    15    1
    28     1    16    1
    29    16    17   ar
    30    17    18   ar
    31    18    19   ar
    32    19    20   ar
    33    20    22    1
    34    22    23    1
    35    20    21   ar
    36    21    24    1
    37    24    25    1
    38    31    32   ar
    39    32    33   ar
    40    33    38    1
    41    38    39    1
    42    39    40    1
    43    33    34   ar
    44    34    29   ar
    45    11     2   ar
    46    21    16   ar
    47     9     4   ar
    48    27    28    1
@<TRIPOS>MOLECULE
*****
 45 48 0 0 0
SMALL
GASTEIGER

@<TRIPOS>ATOM
      1 C         141.6664  142.0805  162.3467 C.3     1  UNL1        0.0808
      2 C         141.9486  141.9217  163.8114 C.ar    1  UNL1        0.0375
      3 C         140.8530  141.4991  164.7447 C.ar    1  UNL1        0.0023
      4 C         141.1351  141.3402  166.2093 C.ar    1  UNL1        0.0183
      5 C         140.0395  140.9177  167.1426 C.ar    1  UNL1        0.0118
      6 C         140.3217  140.7588  168.6073 C.ar    1  UNL1        0.0685
      7 C         141.6995  141.0225  169.1386 C.ar    1  UNL1        0.0118
      8 C         142.7951  141.4450  168.2053 C.ar    1  UNL1        0.0199
      9 C         142.5129  141.6039  166.7407 C.ar    1  UNL1        0.0844
     10 N         143.6085  142.0264  165.8073 N.ar    1  UNL1       -0.2119
     11 C         143.3263  142.1853  164.3426 C.ar    1  UNL1        0.2211
     12 C         139.2261  140.3363  169.5407 C.1     1  UNL1        0.1004
     13 N         138.1305  139.9137  170.4740 N.1     1  UNL1       -0.1908
     14 O         144.4219  142.6079  163.4093 O.3     1  UNL1       -0.4563
     15 C         145.6375  141.7454  163.2404 C.3     1  UNL1        0.2542
     16 C         142.4910  141.3360  161.3389 C.ar    1  UNL1        0.0245
     17 C         142.6290  139.8456  161.4367 C.ar    1  UNL1        0.0200
     18 C         143.4537  139.1010  160.4289 C.ar    1  UNL1        0.1019
     19 N         144.1403  139.8468  159.3234 N.ar    1  UNL1       -0.2076
     20 C         144.0023  141.3373  159.2257 C.ar    1  UNL1        0.2598
     21 C         143.1777  142.0819  160.2334 C.ar    1  UNL1        0.1879
     22 O         144.6890  142.0832  158.1201 O.3     1  UNL1       -0.4541
     23 C         145.2930  141.3319  156.9708 C.3     1  UNL1        0.2543
     24 O         143.0397  143.5723  160.1356 O.3     1  UNL1       -0.4670
     25 C         142.2707  144.1815  159.0010 C.3     1  UNL1        0.2527
     26 C         140.5596  142.9840  161.8899 C.3     1  UNL1        0.1160
     27 O         141.2670  144.1584  162.4984 O.3     1  UNL1       -0.3820
     28 H         140.7447  144.9624  162.3510 H       1  UNL1        0.2107
     29 C         138.8518  140.6158  159.2019 C.ar    1  UNL1        0.1070
     30 C         139.5593  141.7902  159.8104 C.ar    1  UNL1        0.0235
     31 C         139.8521  141.8096  161.2814 C.ar    1  UNL1        0.0064
     32 C         139.4376  140.6545  162.1438 C.ar    1  UNL1        0.0235
     33 C         138.7301  139.4801  161.5353 C.ar    1  UNL1        0.1070
     34 N         138.4372  139.4607  160.0643 N.ar    1  UNL1       -0.2330
     35 S         138.5589  140.5965  157.7308 S.3     1  UNL1       -0.0950
     36 C         137.4559  142.7384  156.7585 C.3     1  UNL1        0.0130
     37 C         137.3510  141.3079  157.1972 C.3     1  UNL1        0.0637
     38 S         138.3156  138.3250  162.3979 S.3     1  UNL1       -0.0950
     39 C         139.3326  137.6174  163.2434 C.3     1  UNL1        0.0637
     40 C         139.3252  137.7963  164.7326 C.3     1  UNL1        0.0130
     41 C         139.4527  143.8874  161.4330 C.3     1  UNL1        0.0491
     42 C         138.6979  144.7131  162.4322 C.3     1  UNL1        0.0750
     43 N         138.4100  144.1610  163.7968 N.3     1  UNL1       -0.2702
     44 C         139.0272  144.7951  165.0080 C.3     1  UNL1        0.0897
     45 C         137.5048  142.9748  163.9503 C.3     1  UNL1        0.0897
@<TRIPOS>BOND
     1    36    37    1
     2    37    35    1
     3    35    29    1
     4    29    30   ar
     5    30    31   ar
     6    31    26    1
     7    26    27    1
     8    26    41    1
     9    41    42    1
    10    42    43    1
    11    43    44    1
    12    43    45    1
    13    26     1    1
    14     1     2    1
    15     2     3   ar
    16     3     4   ar
    17     4     5   ar
    18     5     6   ar
    19     6    12    1
    20    12    13    3
    21     6     7   ar
    22     7     8   ar
    23     8     9   ar
    24     9    10   ar
    25    10    11   ar
    26    11    14    1
    27    14    15    1
    28     1    16    1
    29    16    17   ar
    30    17    18   ar
    31    18    19   ar
    32    19    20   ar
    33    20    22    1
    34    22    23    1
    35    20    21   ar
    36    21    24    1
    37    24    25    1
    38    31    32   ar
    39    32    33   ar
    40    33    38    1
    41    38    39    1
    42    39    40    1
    43    33    34   ar
    44    34    29   ar
    45    11     2   ar
    46    21    16   ar
    47     9     4   ar
    48    27    28    1
@<TRIPOS>MOLECULE
*****
 45 48 0 0 0
SMALL
GASTEIGER

@<TRIPOS>ATOM
      1 C         141.6746  142.0354  162.3765 C.3     1  UNL1        0.0808
      2 C         141.9546  141.8919  163.8431 C.ar    1  UNL1        0.0375
      3 C         140.8625  141.4604  164.7765 C.ar    1  UNL1        0.0023
      4 C         141.1425  141.3169  166.2431 C.ar    1  UNL1        0.0183
      5 C         140.0504  140.8854  167.1764 C.ar    1  UNL1        0.0118
      6 C         140.3305  140.7419  168.6431 C.ar    1  UNL1        0.0685
      7 C         141.7025  141.0299  169.1764 C.ar    1  UNL1        0.0118
      8 C         142.7946  141.4614  168.2430 C.ar    1  UNL1        0.0199
      9 C         142.5147  141.6049  166.7764 C.ar    1  UNL1        0.0844
     10 N         143.6068  142.0364  165.8431 N.ar    1  UNL1       -0.2119
     11 C         143.3267  142.1799  164.3764 C.ar    1  UNL1        0.2211
     12 C         139.2384  140.3105  169.5765 C.1     1  UNL1        0.1004
     13 N         138.1463  139.8790  170.5098 N.1     1  UNL1       -0.1908
     14 O         144.4188  142.6113  163.4430 O.3     1  UNL1       -0.4563
     15 C         145.6493  141.7676  163.2875 C.3     1  UNL1        0.2542
     16 C         142.5333  141.3207  161.3755 C.ar    1  UNL1        0.0245
     17 C         142.6947  139.8315  161.4535 C.ar    1  UNL1        0.0200
     18 C         143.5534  139.1167  160.4525 C.ar    1  UNL1        0.1019
     19 N         144.2506  139.8913  159.3736 N.ar    1  UNL1       -0.2076
     20 C         144.0891  141.3806  159.2957 C.ar    1  UNL1        0.2598
     21 C         143.2305  142.0952  160.2966 C.ar    1  UNL1        0.1879
     22 O         144.7864  142.1551  158.2168 O.3     1  UNL1       -0.4541
     23 C         145.1014  141.4978  156.9058 C.3     1  UNL1        0.2543
     24 O         143.0690  143.5845  160.2187 O.3     1  UNL1       -0.4670
     25 C         142.2819  144.1959  159.0977 C.3     1  UNL1        0.2527
     26 C         140.5359  142.8935  161.9108 C.3     1  UNL1        0.1160
     27 O         141.1728  144.0887  162.5558 O.3     1  UNL1       -0.3820
     28 H         140.6158  144.8695  162.4110 H       1  UNL1        0.2107
     29 C         138.7727  139.3659  161.4673 C.ar    1  UNL1        0.1070
     30 C         139.4096  140.5610  162.1123 C.ar    1  UNL1        0.0235
     31 C         139.8990  141.6984  161.2658 C.ar    1  UNL1        0.0064
     32 C         139.7514  141.6408  159.7742 C.ar    1  UNL1        0.0235
     33 C         139.1145  140.4456  159.1292 C.ar    1  UNL1        0.1070
     34 N         138.6252  139.3082  159.9757 N.ar    1  UNL1       -0.2330
     35 S         138.2834  138.2284  162.3139 S.3     1  UNL1       -0.0950
     36 C         138.9092  137.9960  164.8247 C.3     1  UNL1        0.0130
     37 C         139.1643  137.6581  163.3857 C.3     1  UNL1        0.0637
     38 S         138.9670  140.3880  157.6375 S.3     1  UNL1       -0.0950
     39 C         139.8689  139.5038  156.8283 C.3     1  UNL1        0.0637
     40 C         141.2518  139.1930  157.3189 C.3     1  UNL1        0.0130
     41 C         139.3972  143.7517  161.4451 C.3     1  UNL1        0.0491
     42 C         138.6672  144.6245  162.4226 C.3     1  UNL1        0.0750
     43 N         138.3623  144.1155  163.8002 N.3     1  UNL1       -0.2702
     44 C         138.9038  144.8322  165.0015 C.3     1  UNL1        0.0897
     45 C         137.5157  142.8899  163.9766 C.3     1  UNL1        0.0897
@<TRIPOS>BOND
     1    36    37    1
     2    37    35    1
     3    35    29    1
     4    29    30   ar
     5    30    31   ar
     6    31    26    1
     7    26    27    1
     8    26    41    1
     9    41    42    1
    10    42    43    1
    11    43    44    1
    12    43    45    1
    13    26     1    1
    14     1     2    1
    15     2     3   ar
    16     3     4   ar
    17     4     5   ar
    18     5     6   ar
    19     6    12    1
    20    12    13    3
    21     6     7   ar
    22     7     8   ar
    23     8     9   ar
    24     9    10   ar
    25    10    11   ar
    26    11    14    1
    27    14    15    1
    28     1    16    1
    29    16    17   ar
    30    17    18   ar
    31    18    19   ar
    32    19    20   ar
    33    20    22    1
    34    22    23    1
    35    20    21   ar
    36    21    24    1
    37    24    25    1
    38    31    32   ar
    39    32    33   ar
    40    33    38    1
    41    38    39    1
    42    39    40    1
    43    33    34   ar
    44    34    29   ar
    45    11     2   ar
    46    21    16   ar
    47     9     4   ar
    48    27    28    1
@<TRIPOS>MOLECULE
*****
 45 48 0 0 0
SMALL
GASTEIGER

@<TRIPOS>ATOM
      1 C         140.6411  140.5989  162.3733 C.3     1  UNL1        0.0808
      2 C         140.4414  140.4317  163.8505 C.ar    1  UNL1        0.0375
      3 C         140.5373  141.6210  164.7596 C.ar    1  UNL1        0.0023
      4 C         140.3376  141.4538  166.2368 C.ar    1  UNL1        0.0183
      5 C         140.4336  142.6431  167.1459 C.ar    1  UNL1        0.0118
      6 C         140.2339  142.4759  168.6232 C.ar    1  UNL1        0.0685
      7 C         139.9383  141.1195  169.1913 C.ar    1  UNL1        0.0118
      8 C         139.8424  139.9302  168.2822 C.ar    1  UNL1        0.0199
      9 C         140.0420  140.0974  166.8050 C.ar    1  UNL1        0.0844
     10 N         139.9461  138.9081  165.8959 N.ar    1  UNL1       -0.2119
     11 C         140.1458  139.0753  164.4186 C.ar    1  UNL1        0.2211
     12 C         140.3298  143.6651  169.5323 C.1     1  UNL1        0.1004
     13 N         140.4257  144.8544  170.4414 N.1     1  UNL1       -0.1908
     14 O         140.0499  137.8861  163.5095 O.3     1  UNL1       -0.4563
     15 C         138.7254  137.4941  162.9245 C.3     1  UNL1        0.2542
     16 C         141.6831  139.7886  161.6608 C.ar    1  UNL1        0.0245
     17 C         143.0969  139.7779  162.1617 C.ar    1  UNL1        0.0200
     18 C         144.1390  138.9676  161.4493 C.ar    1  UNL1        0.1019
     19 N         143.7671  138.1678  160.2360 N.ar    1  UNL1       -0.2076
     20 C         142.3532  138.1785  159.7351 C.ar    1  UNL1        0.2598
     21 C         141.3112  138.9888  160.4475 C.ar    1  UNL1        0.1879
     22 O         141.9813  137.3788  158.5218 O.3     1  UNL1       -0.4541
     23 C         142.8330  137.4467  157.2888 C.3     1  UNL1        0.2543
     24 O         139.8974  138.9995  159.9466 O.3     1  UNL1       -0.4670
     25 C         139.5872  139.5547  158.5881 C.3     1  UNL1        0.2527
     26 C         139.7988  141.5765  161.6085 C.3     1  UNL1        0.1160
     27 O         138.5656  140.8126  161.9902 O.3     1  UNL1       -0.3820
     28 H         137.7863  141.2439  161.6063 H       1  UNL1        0.2107
     29 C         143.0992  143.7603  161.9051 C.ar    1  UNL1        0.1070
     30 C         141.8661  142.9964  162.2869 C.ar    1  UNL1        0.0235
     31 C         141.0320  142.3404  161.2267 C.ar    1  UNL1        0.0064
     32 C         141.4311  142.4483  159.7849 C.ar    1  UNL1        0.0235
     33 C         142.6643  143.2122  159.4031 C.ar    1  UNL1        0.1070
     34 N         143.4984  143.8682  160.4632 N.ar    1  UNL1       -0.2330
     35 S         143.9333  144.4164  162.9653 S.3     1  UNL1       -0.0950
     36 C         144.3850  143.3891  165.3086 C.3     1  UNL1        0.0130
     37 C         143.5629  144.2658  164.4110 C.3     1  UNL1        0.0637
     38 S         143.0634  143.3200  157.9612 S.3     1  UNL1       -0.0950
     39 C         142.4736  144.3959  157.0982 C.3     1  UNL1        0.0637
     40 C         141.9234  145.6426  157.7250 C.3     1  UNL1        0.0130
     41 C         138.9565  142.5541  160.8437 C.3     1  UNL1        0.0491
     42 C         137.9417  143.3928  161.5625 C.3     1  UNL1        0.0750
     43 N         138.3851  144.3831  162.5982 N.3     1  UNL1       -0.2702
     44 C         139.2366  145.5525  162.2016 C.3     1  UNL1        0.0897
     45 C         137.9770  144.2040  164.0304 C.3     1  UNL1        0.0897
@<TRIPOS>BOND
     1    36    37    1
     2    37    35    1
     3    35    29    1
     4    29    30   ar
     5    30    31   ar
     6    31    26    1
     7    26    27    1
     8    26    41    1
     9    41    42    1
    10    42    43    1
    11    43    44    1
    12    43    45    1
    13    26     1    1
    14     1     2    1
    15     2     3   ar
    16     3     4   ar
    17     4     5   ar
    18     5     6   ar
    19     6    12    1
    20    12    13    3
    21     6     7   ar
    22     7     8   ar
    23     8     9   ar
    24     9    10   ar
    25    10    11   ar
    26    11    14    1
    27    14    15    1
    28     1    16    1
    29    16    17   ar
    30    17    18   ar
    31    18    19   ar
    32    19    20   ar
    33    20    22    1
    34    22    23    1
    35    20    21   ar
    36    21    24    1
    37    24    25    1
    38    31    32   ar
    39    32    33   ar
    40    33    38    1
    41    38    39    1
    42    39    40    1
    43    33    34   ar
    44    34    29   ar
    45    11     2   ar
    46    21    16   ar
    47     9     4   ar
    48    27    28    1
@<TRIPOS>MOLECULE
*****
 45 48 0 0 0
SMALL
GASTEIGER

@<TRIPOS>ATOM
      1 C         141.6133  142.4723  162.5419 C.3     1  UNL1        0.0808
      2 C         141.9015  142.1671  163.9820 C.ar    1  UNL1        0.0375
      3 C         140.7925  141.7300  164.8925 C.ar    1  UNL1        0.0023
      4 C         141.0806  141.4248  166.3325 C.ar    1  UNL1        0.0183
      5 C         139.9716  140.9876  167.2430 C.ar    1  UNL1        0.0118
      6 C         140.2598  140.6825  168.6832 C.ar    1  UNL1        0.0685
      7 C         141.6570  140.8145  169.2127 C.ar    1  UNL1        0.0118
      8 C         142.7660  141.2516  168.3022 C.ar    1  UNL1        0.0199
      9 C         142.4779  141.5568  166.8622 C.ar    1  UNL1        0.0844
     10 N         143.5869  141.9939  165.9517 N.ar    1  UNL1       -0.2119
     11 C         143.2986  142.2991  164.5115 C.ar    1  UNL1        0.2211
     12 C         139.1508  140.2453  169.5937 C.1     1  UNL1        0.1004
     13 N         138.0418  139.8082  170.5042 N.1     1  UNL1       -0.1908
     14 O         144.4076  142.7363  163.6010 O.3     1  UNL1       -0.4563
     15 C         145.6106  141.8607  163.4104 C.3     1  UNL1        0.2542
     16 C         142.5249  141.9555  161.4687 C.ar    1  UNL1        0.0245
     17 C         143.1713  142.9106  160.5097 C.ar    1  UNL1        0.0200
     18 C         144.0831  142.3939  159.4364 C.ar    1  UNL1        0.1019
     19 N         144.3483  140.9219  159.3223 N.ar    1  UNL1       -0.2076
     20 C         143.7018  139.9667  160.2814 C.ar    1  UNL1        0.2598
     21 C         142.7901  140.4836  161.3545 C.ar    1  UNL1        0.1879
     22 O         143.9670  138.4948  160.1672 O.3     1  UNL1       -0.4541
     23 C         142.9233  137.5875  159.5862 C.3     1  UNL1        0.2543
     24 O         142.1437  139.5284  162.3136 O.3     1  UNL1       -0.4670
     25 C         142.9779  138.8066  163.3300 C.3     1  UNL1        0.2527
     26 C         140.4134  143.2943  162.1750 C.3     1  UNL1        0.1160
     27 O         140.9938  144.4681  162.9066 O.3     1  UNL1       -0.3820
     28 H         140.3873  145.2223  162.8407 H       1  UNL1        0.2107
     29 C         139.2107  140.9434  159.2124 C.ar    1  UNL1        0.1070
     30 C         139.7911  142.1172  159.9440 C.ar    1  UNL1        0.0235
     31 C         139.8329  142.1205  161.4434 C.ar    1  UNL1        0.0064
     32 C         139.2942  140.9499  162.2112 C.ar    1  UNL1        0.0235
     33 C         138.7138  139.7761  161.4796 C.ar    1  UNL1        0.1070
     34 N         138.6720  139.7728  159.9802 N.ar    1  UNL1       -0.2330
     35 S         139.1690  140.9402  157.7130 S.3     1  UNL1       -0.0950
     36 C         140.4258  138.8159  156.9020 C.3     1  UNL1        0.0130
     37 C         139.1740  139.6398  156.9653 C.3     1  UNL1        0.0637
     38 S         138.1751  138.6054  162.2475 S.3     1  UNL1       -0.0950
     39 C         139.1038  137.7443  163.0513 C.3     1  UNL1        0.0637
     40 C         139.3018  138.0160  164.5131 C.3     1  UNL1        0.0130
     41 C         139.2135  144.1163  161.8082 C.3     1  UNL1        0.0491
     42 C         138.4831  144.8905  162.8651 C.3     1  UNL1        0.0750
     43 N         138.2094  144.2633  164.1999 N.3     1  UNL1       -0.2702
     44 C         137.4286  142.9852  164.2820 C.3     1  UNL1        0.0897
     45 C         138.7166  144.9141  165.4525 C.3     1  UNL1        0.0897
@<TRIPOS>BOND
     1    36    37    1
     2    37    35    1
     3    35    29    1
     4    29    30   ar
     5    30    31   ar
     6    31    26    1
     7    26    27    1
     8    26    41    1
     9    41    42    1
    10    42    43    1
    11    43    44    1
    12    43    45    1
    13    26     1    1
    14     1     2    1
    15     2     3   ar
    16     3     4   ar
    17     4     5   ar
    18     5     6   ar
    19     6    12    1
    20    12    13    3
    21     6     7   ar
    22     7     8   ar
    23     8     9   ar
    24     9    10   ar
    25    10    11   ar
    26    11    14    1
    27    14    15    1
    28     1    16    1
    29    16    17   ar
    30    17    18   ar
    31    18    19   ar
    32    19    20   ar
    33    20    22    1
    34    22    23    1
    35    20    21   ar
    36    21    24    1
    37    24    25    1
    38    31    32   ar
    39    32    33   ar
    40    33    38    1
    41    38    39    1
    42    39    40    1
    43    33    34   ar
    44    34    29   ar
    45    11     2   ar
    46    21    16   ar
    47     9     4   ar
    48    27    28    1
@<TRIPOS>MOLECULE
*****
 45 48 0 0 0
SMALL
GASTEIGER

@<TRIPOS>ATOM
      1 C         141.4756  142.5237  162.5111 C.3     1  UNL1        0.0808
      2 C         141.9071  142.4018  163.9425 C.ar    1  UNL1        0.0375
      3 C         140.9937  141.7686  164.9499 C.ar    1  UNL1        0.0023
      4 C         141.4252  141.6466  166.3813 C.ar    1  UNL1        0.0183
      5 C         140.5119  141.0134  167.3886 C.ar    1  UNL1        0.0118
      6 C         140.9434  140.8915  168.8201 C.ar    1  UNL1        0.0685
      7 C         142.2883  141.4027  169.2441 C.ar    1  UNL1        0.0118
      8 C         143.2017  142.0360  168.2367 C.ar    1  UNL1        0.0199
      9 C         142.7702  142.1579  166.8053 C.ar    1  UNL1        0.0844
     10 N         143.6836  142.7911  165.7980 N.ar    1  UNL1       -0.2119
     11 C         143.2520  142.9131  164.3665 C.ar    1  UNL1        0.2211
     12 C         140.0300  140.2583  169.8274 C.1     1  UNL1        0.1004
     13 N         139.1166  139.6250  170.8348 N.1     1  UNL1       -0.1908
     14 O         144.1654  143.5463  163.3592 O.3     1  UNL1       -0.4563
     15 C         144.0799  145.0197  163.0911 C.3     1  UNL1        0.2542
     16 C         142.3498  141.9885  161.4160 C.ar    1  UNL1        0.0245
     17 C         142.7654  142.8811  160.2844 C.ar    1  UNL1        0.0200
     18 C         143.6397  142.3459  159.1892 C.ar    1  UNL1        0.1019
     19 N         144.0982  140.9181  159.2257 N.ar    1  UNL1       -0.2076
     20 C         143.6825  140.0256  160.3574 C.ar    1  UNL1        0.2598
     21 C         142.8083  140.5608  161.4525 C.ar    1  UNL1        0.1879
     22 O         144.1411  138.5979  160.3939 O.3     1  UNL1       -0.4541
     23 C         143.1682  137.4903  160.1165 C.3     1  UNL1        0.2543
     24 O         142.3927  139.6683  162.5841 O.3     1  UNL1       -0.4670
     25 C         143.4108  139.1945  163.5786 C.3     1  UNL1        0.2527
     26 C         140.1698  143.1809  162.1748 C.3     1  UNL1        0.1160
     27 O         140.6673  144.4691  162.7605 O.3     1  UNL1       -0.3820
     28 H         139.9784  145.1474  162.6817 H       1  UNL1        0.2107
     29 C         138.9043  139.4298  161.8961 C.ar    1  UNL1        0.1070
     30 C         139.4018  140.7180  162.4818 C.ar    1  UNL1        0.0235
     31 C         139.6723  141.8927  161.5891 C.ar    1  UNL1        0.0064
     32 C         139.4453  141.7791  160.1108 C.ar    1  UNL1        0.0235
     33 C         138.9478  140.4909  159.5251 C.ar    1  UNL1        0.1070
     34 N         138.6773  139.3163  160.4178 N.ar    1  UNL1       -0.2330
     35 S         138.6338  138.2551  162.7889 S.3     1  UNL1       -0.0950
     36 C         140.1094  137.9916  164.9109 C.3     1  UNL1        0.0130
     37 C         138.8100  138.3846  164.2729 C.3     1  UNL1        0.0637
     38 S         138.7208  140.3774  158.0467 S.3     1  UNL1       -0.0950
     39 C         137.4685  140.9324  157.4354 C.3     1  UNL1        0.0637
     40 C         137.4214  142.3643  156.9915 C.3     1  UNL1        0.0130
     41 C         138.8640  143.8380  161.8386 C.3     1  UNL1        0.0491
     42 C         138.0981  144.5711  162.8997 C.3     1  UNL1        0.0750
     43 N         138.0765  144.0484  164.3055 N.3     1  UNL1       -0.2702
     44 C         137.5184  142.6856  164.5904 C.3     1  UNL1        0.0897
     45 C         138.6131  144.8884  165.4263 C.3     1  UNL1        0.0897
@<TRIPOS>BOND
     1    36    37    1
     2    37    35    1
     3    35    29    1
     4    29    30   ar
     5    30    31   ar
     6    31    26    1
     7    26    27    1
     8    26    41    1
     9    41    42    1
    10    42    43    1
    11    43    44    1
    12    43    45    1
    13    26     1    1
    14     1     2    1
    15     2     3   ar
    16     3     4   ar
    17     4     5   ar
    18     5     6   ar
    19     6    12    1
    20    12    13    3
    21     6     7   ar
    22     7     8   ar
    23     8     9   ar
    24     9    10   ar
    25    10    11   ar
    26    11    14    1
    27    14    15    1
    28     1    16    1
    29    16    17   ar
    30    17    18   ar
    31    18    19   ar
    32    19    20   ar
    33    20    22    1
    34    22    23    1
    35    20    21   ar
    36    21    24    1
    37    24    25    1
    38    31    32   ar
    39    32    33   ar
    40    33    38    1
    41    38    39    1
    42    39    40    1
    43    33    34   ar
    44    34    29   ar
    45    11     2   ar
    46    21    16   ar
    47     9     4   ar
    48    27    28    1
@<TRIPOS>MOLECULE
*****
 45 48 0 0 0
SMALL
GASTEIGER

@<TRIPOS>ATOM
      1 C         140.1868  141.3068  162.1161 C.3     1  UNL1        0.0808
      2 C         139.9439  140.9682  163.5571 C.ar    1  UNL1        0.0375
      3 C         140.6828  141.7041  164.6353 C.ar    1  UNL1        0.0023
      4 C         140.4400  141.3654  166.0762 C.ar    1  UNL1        0.0183
      5 C         141.1788  142.1014  167.1544 C.ar    1  UNL1        0.0118
      6 C         140.9360  141.7627  168.5954 C.ar    1  UNL1        0.0685
      7 C         139.9543  140.6881  168.9581 C.ar    1  UNL1        0.0118
      8 C         139.2155  139.9522  167.8799 C.ar    1  UNL1        0.0199
      9 C         139.4583  140.2908  166.4390 C.ar    1  UNL1        0.0844
     10 N         138.7194  139.5549  165.3608 N.ar    1  UNL1       -0.2119
     11 C         138.9623  139.8936  163.9198 C.ar    1  UNL1        0.2211
     12 C         141.6749  142.4986  169.6736 C.1     1  UNL1        0.1004
     13 N         142.4137  143.2345  170.7518 N.1     1  UNL1       -0.1908
     14 O         138.2234  139.1577  162.8416 O.3     1  UNL1       -0.4563
     15 C         138.4923  137.7004  162.6086 C.3     1  UNL1        0.2542
     16 C         140.5275  140.2220  161.1378 C.ar    1  UNL1        0.0245
     17 C         141.7329  139.3587  161.3651 C.ar    1  UNL1        0.0200
     18 C         142.0736  138.2738  160.3868 C.ar    1  UNL1        0.1019
     19 N         141.2089  138.0524  159.1812 N.ar    1  UNL1       -0.2076
     20 C         140.0035  138.9158  158.9540 C.ar    1  UNL1        0.2598
     21 C         139.6628  140.0006  159.9323 C.ar    1  UNL1        0.1879
     22 O         139.1388  138.6943  157.7485 O.3     1  UNL1       -0.4541
     23 C         139.6514  139.0455  156.3831 C.3     1  UNL1        0.2543
     24 O         138.4574  140.8639  159.7050 O.3     1  UNL1       -0.4670
     25 C         138.4495  141.8609  158.5844 C.3     1  UNL1        0.2527
     26 C         140.0889  142.7304  161.6535 C.3     1  UNL1        0.1160
     27 O         138.6269  142.7389  161.9889 O.3     1  UNL1       -0.3820
     28 H         138.2521  143.6086  161.7792 H       1  UNL1        0.2107
     29 C         144.0337  142.6476  162.0796 C.ar    1  UNL1        0.1070
     30 C         142.5717  142.6561  162.4150 C.ar    1  UNL1        0.0235
     31 C         141.5509  142.7219  161.3180 C.ar    1  UNL1        0.0064
     32 C         141.9920  142.7791  159.8855 C.ar    1  UNL1        0.0235
     33 C         143.4540  142.7706  159.5501 C.ar    1  UNL1        0.1070
     34 N         144.4748  142.7048  160.6471 N.ar    1  UNL1       -0.2330
     35 S         145.0546  142.5818  163.1767 S.3     1  UNL1       -0.0950
     36 C         144.7413  140.0636  163.7342 C.3     1  UNL1        0.0130
     37 C         145.6342  141.2594  163.5834 C.3     1  UNL1        0.0637
     38 S         143.8951  142.8279  158.1175 S.3     1  UNL1       -0.0950
     39 C         145.2794  142.3899  157.7409 C.3     1  UNL1        0.0637
     40 C         145.4714  141.2633  156.7694 C.3     1  UNL1        0.0130
     41 C         139.9910  144.1539  161.1908 C.3     1  UNL1        0.0491
     42 C         139.5802  145.2287  162.1531 C.3     1  UNL1        0.0750
     43 N         140.0220  145.1622  163.5851 N.3     1  UNL1       -0.2702
     44 C         139.0214  144.8803  164.6663 C.3     1  UNL1        0.0897
     45 C         141.4644  145.3776  163.9357 C.3     1  UNL1        0.0897
@<TRIPOS>BOND
     1    36    37    1
     2    37    35    1
     3    35    29    1
     4    29    30   ar
     5    30    31   ar
     6    31    26    1
     7    26    27    1
     8    26    41    1
     9    41    42    1
    10    42    43    1
    11    43    44    1
    12    43    45    1
    13    26     1    1
    14     1     2    1
    15     2     3   ar
    16     3     4   ar
    17     4     5   ar
    18     5     6   ar
    19     6    12    1
    20    12    13    3
    21     6     7   ar
    22     7     8   ar
    23     8     9   ar
    24     9    10   ar
    25    10    11   ar
    26    11    14    1
    27    14    15    1
    28     1    16    1
    29    16    17   ar
    30    17    18   ar
    31    18    19   ar
    32    19    20   ar
    33    20    22    1
    34    22    23    1
    35    20    21   ar
    36    21    24    1
    37    24    25    1
    38    31    32   ar
    39    32    33   ar
    40    33    38    1
    41    38    39    1
    42    39    40    1
    43    33    34   ar
    44    34    29   ar
    45    11     2   ar
    46    21    16   ar
    47     9     4   ar
    48    27    28    1
@<TRIPOS>MOLECULE
*****
 45 48 0 0 0
SMALL
GASTEIGER

@<TRIPOS>ATOM
      1 C         140.2614  141.2944  162.0476 C.3     1  UNL1        0.0808
      2 C         140.0184  140.9773  163.4935 C.ar    1  UNL1        0.0375
      3 C         140.7557  141.7305  164.5607 C.ar    1  UNL1        0.0023
      4 C         140.5127  141.4134  166.0065 C.ar    1  UNL1        0.0183
      5 C         141.2500  142.1667  167.0737 C.ar    1  UNL1        0.0118
      6 C         141.0070  141.8495  168.5196 C.ar    1  UNL1        0.0685
      7 C         140.0268  140.7791  168.8981 C.ar    1  UNL1        0.0118
      8 C         139.2895  140.0259  167.8309 C.ar    1  UNL1        0.0199
      9 C         139.5324  140.3430  166.3851 C.ar    1  UNL1        0.0844
     10 N         138.7951  139.5897  165.3179 N.ar    1  UNL1       -0.2119
     11 C         139.0381  139.9069  163.8720 C.ar    1  UNL1        0.2211
     12 C         141.7443  142.6028  169.5868 C.1     1  UNL1        0.1004
     13 N         142.4816  143.3561  170.6540 N.1     1  UNL1       -0.1908
     14 O         138.3008  139.1536  162.8048 O.3     1  UNL1       -0.4563
     15 C         138.5206  137.6790  162.6397 C.3     1  UNL1        0.2542
     16 C         140.5806  140.1924  161.0814 C.ar    1  UNL1        0.0245
     17 C         141.7709  139.3104  161.3164 C.ar    1  UNL1        0.0200
     18 C         142.0902  138.2083  160.3502 C.ar    1  UNL1        0.1019
     19 N         141.2192  137.9883  159.1490 N.ar    1  UNL1       -0.2076
     20 C         140.0288  138.8703  158.9140 C.ar    1  UNL1        0.2598
     21 C         139.7096  139.9724  159.8802 C.ar    1  UNL1        0.1879
     22 O         139.1578  138.6503  157.7128 O.3     1  UNL1       -0.4541
     23 C         139.6782  138.9641  156.3414 C.3     1  UNL1        0.2543
     24 O         138.5193  140.8543  159.6452 O.3     1  UNL1       -0.4670
     25 C         138.5271  141.8388  158.5135 C.3     1  UNL1        0.2527
     26 C         140.1851  142.7137  161.5680 C.3     1  UNL1        0.1160
     27 O         138.7225  142.7469  161.8992 O.3     1  UNL1       -0.3820
     28 H         138.3607  143.6194  161.6782 H       1  UNL1        0.2107
     29 C         143.5585  142.7498  159.4780 C.ar    1  UNL1        0.1070
     30 C         142.0959  142.7830  159.8091 C.ar    1  UNL1        0.0235
     31 C         141.6477  142.6804  161.2369 C.ar    1  UNL1        0.0064
     32 C         142.6620  142.5444  162.3335 C.ar    1  UNL1        0.0235
     33 C         144.1247  142.5112  162.0023 C.ar    1  UNL1        0.1070
     34 N         144.5729  142.6138  160.5746 N.ar    1  UNL1       -0.2330
     35 S         144.0068  142.8524  158.0501 S.3     1  UNL1       -0.0950
     36 C         146.1406  142.1460  156.7472 C.3     1  UNL1        0.0130
     37 C         144.8706  141.7795  157.4563 C.3     1  UNL1        0.0637
     38 S         145.1390  142.3752  163.0990 S.3     1  UNL1       -0.0950
     39 C         144.6900  142.2530  164.5250 C.3     1  UNL1        0.0637
     40 C         144.5317  143.4826  165.3694 C.3     1  UNL1        0.0130
     41 C         140.1088  144.1329  161.0884 C.3     1  UNL1        0.0491
     42 C         139.7078  145.2242  162.0361 C.3     1  UNL1        0.0750
     43 N         140.1294  145.1612  163.4742 N.3     1  UNL1       -0.2702
     44 C         139.1121  144.8903  164.5428 C.3     1  UNL1        0.0897
     45 C         141.5681  145.3690  163.8439 C.3     1  UNL1        0.0897
@<TRIPOS>BOND
     1    36    37    1
     2    37    35    1
     3    35    29    1
     4    29    30   ar
     5    30    31   ar
     6    31    26    1
     7    26    27    1
     8    26    41    1
     9    41    42    1
    10    42    43    1
    11    43    44    1
    12    43    45    1
    13    26     1    1
    14     1     2    1
    15     2     3   ar
    16     3     4   ar
    17     4     5   ar
    18     5     6   ar
    19     6    12    1
    20    12    13    3
    21     6     7   ar
    22     7     8   ar
    23     8     9   ar
    24     9    10   ar
    25    10    11   ar
    26    11    14    1
    27    14    15    1
    28     1    16    1
    29    16    17   ar
    30    17    18   ar
    31    18    19   ar
    32    19    20   ar
    33    20    22    1
    34    22    23    1
    35    20    21   ar
    36    21    24    1
    37    24    25    1
    38    31    32   ar
    39    32    33   ar
    40    33    38    1
    41    38    39    1
    42    39    40    1
    43    33    34   ar
    44    34    29   ar
    45    11     2   ar
    46    21    16   ar
    47     9     4   ar
    48    27    28    1
