@<TRIPOS>MOLECULE
*****
 16 18 0 0 0
SMALL
GASTEIGER

@<TRIPOS>ATOM
      1 O         138.6035  139.9204  170.7230 O.3     1  UNL1       -0.4724
      2 CL        141.3144  142.6717  166.1317 Cl      1  UNL1       -0.0613
      3 C         140.6367  141.9839  167.2795 C.ar    1  UNL1        0.1386
      4 C         140.6066  142.6335  168.6312 C.ar    1  UNL1        0.0339
      5 C         139.9289  141.9457  169.7790 C.ar    1  UNL1        0.0410
      6 C         139.2812  140.6082  169.5752 C.ar    1  UNL1        0.1578
      7 C         139.3113  139.9586  168.2235 C.ar    1  UNL1        0.1366
      8 N         139.9890  140.6464  167.0757 N.ar    1  UNL1       -0.2293
      9 C         137.2626  139.2775  170.5262 C.3     1  UNL1        0.2210
     10 C         136.6920  138.3910  171.5932 C.3     1  UNL1        0.0983
     11 C         135.3036  138.4695  172.1554 C.3     1  UNL1        0.0209
     12 C         135.1631  137.3974  173.1950 C.3     1  UNL1        0.0172
     13 C         135.3197  136.2591  174.1592 C.3     1  UNL1        0.0171
     14 C         136.4647  136.6562  173.2753 C.3     1  UNL1        0.0541
     15 N         137.4097  137.2702  172.2853 N.3     1  UNL1       -0.2966
     16 H         137.6985  136.5700  171.6022 H       1  UNL1        0.1233
@<TRIPOS>BOND
     1     2     3    1
     2     3     4   ar
     3     4     5   ar
     4     5     6   ar
     5     6     1    1
     6     1     9    1
     7    10     9    1
     8    10    11    1
     9    12    11    1
    10    12    13    1
    11    14    13    1
    12    14    15    1
    13     6     7   ar
    14     7     8   ar
    15     8     3   ar
    16    15    10    1
    17    14    12    1
    18    15    16    1
@<TRIPOS>MOLECULE
*****
 16 18 0 0 0
SMALL
GASTEIGER

@<TRIPOS>ATOM
      1 O         137.8744  138.0934  161.7111 O.3     1  UNL1       -0.4724
      2 CL        142.6195  137.9700  165.3810 Cl      1  UNL1       -0.0613
      3 C         141.4332  138.0009  164.4636 C.ar    1  UNL1        0.1386
      4 C         140.0496  138.1208  165.0303 C.ar    1  UNL1        0.0339
      5 C         138.8634  138.1516  164.1129 C.ar    1  UNL1        0.0410
      6 C         139.0606  138.0625  162.6286 C.ar    1  UNL1        0.1578
      7 C         140.4442  137.9426  162.0618 C.ar    1  UNL1        0.1366
      8 N         141.6305  137.9118  162.9793 N.ar    1  UNL1       -0.2293
      9 C         137.5225  139.3563  160.9824 C.3     1  UNL1        0.2210
     10 C         137.6252  140.6793  161.6817 C.3     1  UNL1        0.0983
     11 C         138.4209  141.8629  161.2169 C.3     1  UNL1        0.0209
     12 C         138.2378  142.9661  162.2167 C.3     1  UNL1        0.0172
     13 C         137.8723  143.8609  163.3637 C.3     1  UNL1        0.0171
     14 C         137.3290  142.4643  163.2994 C.3     1  UNL1        0.0541
     15 N         136.9503  141.0510  162.9688 N.3     1  UNL1       -0.2966
     16 H         135.9384  140.9796  162.8623 H       1  UNL1        0.1233
@<TRIPOS>BOND
     1     2     3    1
     2     3     4   ar
     3     4     5   ar
     4     5     6   ar
     5     6     1    1
     6     1     9    1
     7    10     9    1
     8    10    11    1
     9    12    11    1
    10    12    13    1
    11    14    13    1
    12    14    15    1
    13     6     7   ar
    14     7     8   ar
    15     8     3   ar
    16    15    10    1
    17    14    12    1
    18    15    16    1
@<TRIPOS>MOLECULE
*****
 16 18 0 0 0
SMALL
GASTEIGER

@<TRIPOS>ATOM
      1 O         137.1934  141.2211  163.2506 O.3     1  UNL1       -0.4724
      2 CL        139.8951  146.3984  161.8735 Cl      1  UNL1       -0.0613
      3 C         139.2197  145.1041  162.2178 C.ar    1  UNL1        0.1386
      4 C         138.7475  144.8541  163.6193 C.ar    1  UNL1        0.0339
      5 C         138.0720  143.5598  163.9636 C.ar    1  UNL1        0.0410
      6 C         137.8688  142.5154  162.9063 C.ar    1  UNL1        0.1578
      7 C         138.3411  142.7654  161.5047 C.ar    1  UNL1        0.1366
      8 N         139.0165  144.0597  161.1604 N.ar    1  UNL1       -0.2293
      9 C         138.0041  140.0611  163.7475 C.3     1  UNL1        0.2210
     10 C         138.5149  140.0524  165.1578 C.3     1  UNL1        0.0983
     11 C         138.0529  139.1427  166.2573 C.3     1  UNL1        0.0209
     12 C         138.8299  139.4799  167.4953 C.3     1  UNL1        0.0172
     13 C         139.7434  140.0315  168.5494 C.3     1  UNL1        0.0171
     14 C         139.7721  140.5982  167.1609 C.3     1  UNL1        0.0541
     15 N         139.5775  140.9520  165.7162 N.3     1  UNL1       -0.2966
     16 H         140.4500  140.8155  165.2058 H       1  UNL1        0.1233
@<TRIPOS>BOND
     1     2     3    1
     2     3     4   ar
     3     4     5   ar
     4     5     6   ar
     5     6     1    1
     6     1     9    1
     7    10     9    1
     8    10    11    1
     9    12    11    1
    10    12    13    1
    11    14    13    1
    12    14    15    1
    13     6     7   ar
    14     7     8   ar
    15     8     3   ar
    16    15    10    1
    17    14    12    1
    18    15    16    1
@<TRIPOS>MOLECULE
*****
 16 18 0 0 0
SMALL
GASTEIGER

@<TRIPOS>ATOM
      1 O         138.4729  145.5291  162.0981 O.3     1  UNL1       -0.4724
      2 CL        138.0478  139.9552  164.2776 Cl      1  UNL1       -0.0613
      3 C         138.1541  141.3487  163.7327 C.ar    1  UNL1        0.1386
      4 C         138.0558  142.5252  164.6579 C.ar    1  UNL1        0.0339
      5 C         138.1620  143.9187  164.1130 C.ar    1  UNL1        0.0410
      6 C         138.3667  144.1356  162.6430 C.ar    1  UNL1        0.1578
      7 C         138.4650  142.9591  161.7178 C.ar    1  UNL1        0.1366
      8 N         138.3587  141.5656  162.2627 N.ar    1  UNL1       -0.2293
      9 C         139.8139  146.0885  161.7254 C.3     1  UNL1        0.2210
     10 C         141.0639  145.4741  162.2823 C.3     1  UNL1        0.0983
     11 C         141.4638  145.4451  163.7277 C.3     1  UNL1        0.0209
     12 C         142.7805  144.7339  163.8303 C.3     1  UNL1        0.0172
     13 C         144.0699  143.9966  163.6215 C.3     1  UNL1        0.0171
     14 C         143.1944  144.3233  162.4482 C.3     1  UNL1        0.0541
     15 N         142.1335  144.7808  161.4914 N.3     1  UNL1       -0.2966
     16 H         141.7375  143.9773  161.0037 H       1  UNL1        0.1233
@<TRIPOS>BOND
     1     2     3    1
     2     3     4   ar
     3     4     5   ar
     4     5     6   ar
     5     6     1    1
     6     1     9    1
     7    10     9    1
     8    10    11    1
     9    12    11    1
    10    12    13    1
    11    14    13    1
    12    14    15    1
    13     6     7   ar
    14     7     8   ar
    15     8     3   ar
    16    15    10    1
    17    14    12    1
    18    15    16    1
@<TRIPOS>MOLECULE
*****
 16 18 0 0 0
SMALL
GASTEIGER

@<TRIPOS>ATOM
      1 O         138.6082  145.2889  162.4109 O.3     1  UNL1       -0.4724
      2 CL        144.4945  144.1309  162.5096 Cl      1  UNL1       -0.0613
      3 C         143.0229  144.4204  162.4849 C.ar    1  UNL1        0.1386
      4 C         142.2777  144.6278  163.7701 C.ar    1  UNL1        0.0339
      5 C         140.8061  144.9173  163.7454 C.ar    1  UNL1        0.0410
      6 C         140.0797  144.9994  162.4356 C.ar    1  UNL1        0.1578
      7 C         140.8250  144.7920  161.1505 C.ar    1  UNL1        0.1366
      8 N         142.2966  144.5025  161.1752 N.ar    1  UNL1       -0.2293
      9 C         137.6532  144.3820  163.1289 C.3     1  UNL1        0.2210
     10 C         137.7471  142.8964  162.9440 C.3     1  UNL1        0.0983
     11 C         137.9013  141.8800  164.0363 C.3     1  UNL1        0.0209
     12 C         137.9528  140.5218  163.4017 C.3     1  UNL1        0.0172
     13 C         137.9728  139.3237  162.4994 C.3     1  UNL1        0.0171
     14 C         137.8303  140.6988  161.9173 C.3     1  UNL1        0.0541
     15 N         137.7032  142.1664  161.6343 N.3     1  UNL1       -0.2966
     16 H         136.8177  142.3527  161.1636 H       1  UNL1        0.1233
@<TRIPOS>BOND
     1     2     3    1
     2     3     4   ar
     3     4     5   ar
     4     5     6   ar
     5     6     1    1
     6     1     9    1
     7    10     9    1
     8    10    11    1
     9    12    11    1
    10    12    13    1
    11    14    13    1
    12    14    15    1
    13     6     7   ar
    14     7     8   ar
    15     8     3   ar
    16    15    10    1
    17    14    12    1
    18    15    16    1
@<TRIPOS>MOLECULE
*****
 16 18 0 0 0
SMALL
GASTEIGER

@<TRIPOS>ATOM
      1 O         137.3640  142.5758  162.3650 O.3     1  UNL1       -0.4724
      2 CL        139.0119  137.5148  165.1347 Cl      1  UNL1       -0.0613
      3 C         138.5999  138.7801  164.4422 C.ar    1  UNL1        0.1386
      4 C         138.3727  140.0309  165.2383 C.ar    1  UNL1        0.0339
      5 C         137.9607  141.2961  164.5459 C.ar    1  UNL1        0.0410
      6 C         137.7760  141.3106  163.0574 C.ar    1  UNL1        0.1578
      7 C         138.0032  140.0597  162.2614 C.ar    1  UNL1        0.1366
      8 N         138.4152  138.7945  162.9538 N.ar    1  UNL1       -0.2293
      9 C         137.7566  143.9057  162.9369 C.3     1  UNL1        0.2210
     10 C         139.2066  144.2613  163.0817 C.3     1  UNL1        0.0983
     11 C         139.8937  144.6608  164.3538 C.3     1  UNL1        0.0209
     12 C         141.3359  144.9262  164.0381 C.3     1  UNL1        0.0172
     13 C         142.6937  145.1165  163.4299 C.3     1  UNL1        0.0171
     14 C         141.5401  144.6908  162.5709 C.3     1  UNL1        0.0541
     15 N         140.2242  144.2799  161.9797 N.3     1  UNL1       -0.2966
     16 H         140.3050  143.3504  161.5675 H       1  UNL1        0.1233
@<TRIPOS>BOND
     1     2     3    1
     2     3     4   ar
     3     4     5   ar
     4     5     6   ar
     5     6     1    1
     6     1     9    1
     7    10     9    1
     8    10    11    1
     9    12    11    1
    10    12    13    1
    11    14    13    1
    12    14    15    1
    13     6     7   ar
    14     7     8   ar
    15     8     3   ar
    16    15    10    1
    17    14    12    1
    18    15    16    1
@<TRIPOS>MOLECULE
*****
 16 18 0 0 0
SMALL
GASTEIGER

@<TRIPOS>ATOM
      1 O         140.1141  137.1755  162.7044 O.3     1  UNL1       -0.4724
      2 CL        145.2812  139.7249  164.3782 Cl      1  UNL1       -0.0613
      3 C         143.9894  139.0875  163.9598 C.ar    1  UNL1        0.1386
      4 C         143.0357  138.5741  164.9974 C.ar    1  UNL1        0.0339
      5 C         141.7440  137.9367  164.5790 C.ar    1  UNL1        0.0410
      6 C         141.4059  137.8129  163.1229 C.ar    1  UNL1        0.1578
      7 C         142.3595  138.3263  162.0852 C.ar    1  UNL1        0.1366
      8 N         143.6513  138.9637  162.5037 N.ar    1  UNL1       -0.2293
      9 C         138.8293  137.5820  163.3632 C.3     1  UNL1        0.2210
     10 C         138.4234  139.0258  163.3887 C.3     1  UNL1        0.0983
     11 C         138.6823  139.9949  164.5039 C.3     1  UNL1        0.0209
     12 C         138.1063  141.3221  164.1079 C.3     1  UNL1        0.0172
     13 C         137.4475  142.4980  163.4499 C.3     1  UNL1        0.0171
     14 C         137.4915  141.1733  162.7478 C.3     1  UNL1        0.0541
     15 N         137.6875  139.7541  162.3032 N.3     1  UNL1       -0.2966
     16 H         138.2326  139.7335  161.4414 H       1  UNL1        0.1233
@<TRIPOS>BOND
     1     2     3    1
     2     3     4   ar
     3     4     5   ar
     4     5     6   ar
     5     6     1    1
     6     1     9    1
     7    10     9    1
     8    10    11    1
     9    12    11    1
    10    12    13    1
    11    14    13    1
    12    14    15    1
    13     6     7   ar
    14     7     8   ar
    15     8     3   ar
    16    15    10    1
    17    14    12    1
    18    15    16    1
@<TRIPOS>MOLECULE
*****
 16 18 0 0 0
SMALL
GASTEIGER

@<TRIPOS>ATOM
      1 O         142.1347  137.7940  161.4479 O.3     1  UNL1       -0.4724
      2 CL        138.1964  139.0396  165.7997 Cl      1  UNL1       -0.0613
      3 C         139.1810  138.7282  164.7117 C.ar    1  UNL1        0.1386
      4 C         140.0693  137.5250  164.8260 C.ar    1  UNL1        0.0339
      5 C         141.0539  137.2136  163.7380 C.ar    1  UNL1        0.0410
      6 C         141.1501  138.1054  162.5358 C.ar    1  UNL1        0.1578
      7 C         140.2618  139.3086  162.4216 C.ar    1  UNL1        0.1366
      8 N         139.2773  139.6200  163.5095 N.ar    1  UNL1       -0.2293
      9 C         143.6070  137.8709  161.7242 C.3     1  UNL1        0.2210
     10 C         144.1794  139.0755  162.4107 C.3     1  UNL1        0.0983
     11 C         144.3268  139.2592  163.8921 C.3     1  UNL1        0.0209
     12 C         144.9433  140.6052  164.1333 C.3     1  UNL1        0.0172
     13 C         145.5559  141.9725  164.0615 C.3     1  UNL1        0.0171
     14 C         145.1770  141.2534  162.8009 C.3     1  UNL1        0.0541
     15 N         144.7049  140.3081  161.7362 N.3     1  UNL1       -0.2966
     16 H         145.4815  140.0623  161.1223 H       1  UNL1        0.1233
@<TRIPOS>BOND
     1     2     3    1
     2     3     4   ar
     3     4     5   ar
     4     5     6   ar
     5     6     1    1
     6     1     9    1
     7    10     9    1
     8    10    11    1
     9    12    11    1
    10    12    13    1
    11    14    13    1
    12    14    15    1
    13     6     7   ar
    14     7     8   ar
    15     8     3   ar
    16    15    10    1
    17    14    12    1
    18    15    16    1
@<TRIPOS>MOLECULE
*****
 16 18 0 0 0
SMALL
GASTEIGER

@<TRIPOS>ATOM
      1 O         144.4157  144.7138  162.4580 O.3     1  UNL1       -0.4724
      2 CL        144.1731  138.9359  160.8590 Cl      1  UNL1       -0.0613
      3 C         144.2337  140.3804  161.2587 C.ar    1  UNL1        0.1386
      4 C         143.5023  141.4128  160.4532 C.ar    1  UNL1        0.0339
      5 C         143.5629  142.8573  160.8530 C.ar    1  UNL1        0.0410
      6 C         144.3551  143.2693  162.0582 C.ar    1  UNL1        0.1578
      7 C         145.0865  142.2369  162.8638 C.ar    1  UNL1        0.1366
      8 N         145.0259  140.7924  162.4640 N.ar    1  UNL1       -0.2293
      9 C         143.6295  145.1986  163.6398 C.3     1  UNL1        0.2210
     10 C         142.1434  144.9996  163.6848 C.3     1  UNL1        0.0983
     11 C         141.4201  143.9265  164.4431 C.3     1  UNL1        0.0209
     12 C         139.9494  144.1025  164.2063 C.3     1  UNL1        0.0172
     13 C         138.5696  144.5211  163.7928 C.3     1  UNL1        0.0171
     14 C         139.7638  145.2844  163.3015 C.3     1  UNL1        0.0541
     15 N         141.1198  145.8389  162.9791 N.3     1  UNL1       -0.2966
     16 H         141.1838  146.8051  163.2996 H       1  UNL1        0.1233
@<TRIPOS>BOND
     1     2     3    1
     2     3     4   ar
     3     4     5   ar
     4     5     6   ar
     5     6     1    1
     6     1     9    1
     7    10     9    1
     8    10    11    1
     9    12    11    1
    10    12    13    1
    11    14    13    1
    12    14    15    1
    13     6     7   ar
    14     7     8   ar
    15     8     3   ar
    16    15    10    1
    17    14    12    1
    18    15    16    1
