@<TRIPOS>MOLECULE
*****
 31 35 0 0 0
SMALL
GASTEIGER

@<TRIPOS>ATOM
      1 C         140.4283  140.8780  161.5300 C.ar    1  UNL1        0.0033
      2 C         139.3335  141.7311  160.9612 C.ar    1  UNL1        0.0024
      3 C         138.3132  142.3477  161.8718 C.ar    1  UNL1        0.0296
      4 C         138.3878  142.1110  163.3511 C.ar    1  UNL1        0.1402
      5 F         137.3677  142.7275  164.2617 F       1  UNL1       -0.2042
      6 C         139.4827  141.2579  163.9199 C.ar    1  UNL1        0.0304
      7 C         140.5029  140.6414  163.0093 C.ar    1  UNL1        0.0024
      8 C         139.5574  141.0212  165.3992 C.ar    1  UNL1        0.0359
      9 C         140.2718  142.0025  166.2806 C.ar    1  UNL1        0.0006
     10 C         140.3464  141.7659  167.7600 C.ar    1  UNL1        0.0023
     11 C         139.7066  140.5480  168.3579 C.ar    1  UNL1        0.0542
     12 C         138.9923  139.5668  167.4765 C.ar    1  UNL1        0.0411
     13 C         138.9176  139.8034  165.9972 C.ar    1  UNL1        0.1388
     14 C         139.9422  140.5805  169.8389 C.2     1  UNL1        0.2492
     15 O         139.4745  139.5551  170.8288 O.2     1  UNL1       -0.2699
     16 N         140.7275  141.8185  170.1563 N.am    1  UNL1       -0.2702
     17 C         141.1831  142.2483  171.5194 C.3     1  UNL1        0.1155
     18 C         140.9773  142.5510  168.8715 C.3     1  UNL1        0.1206
     19 O         138.2032  138.8221  165.1158 O.3     1  UNL1       -0.4714
     20 C         138.9369  137.6347  164.5666 C.3     1  UNL1        0.2525
     21 N         141.3028  137.9220  157.5703 N.ar    1  UNL1       -0.2931
     22 C         139.8333  138.0248  157.8534 C.ar    1  UNL1        0.1797
     23 N         139.6521  138.9195  159.0436 N.ar    1  UNL1       -0.2222
     24 C         141.0096  139.3698  159.4960 C.ar    1  UNL1        0.1203
     25 C         141.4485  140.2615  160.6194 C.ar    1  UNL1        0.0417
     26 C         142.9076  140.5367  160.8324 C.ar    1  UNL1        0.1238
     27 N         143.9277  139.9202  159.9218 N.ar    1  UNL1       -0.1449
     28 N         143.4888  139.0284  158.7984 N.ar    1  UNL1       -0.1285
     29 C         142.0297  138.7532  158.5854 C.ar    1  UNL1        0.1843
     30 C         142.8079  135.9524  156.7921 C.3     1  UNL1        0.0266
     31 C         141.9344  137.1274  156.4659 C.3     1  UNL1        0.1091
@<TRIPOS>BOND
     1    30    31    1
     2    31    21    1
     3    21    22   ar
     4    22    23   ar
     5    23    24   ar
     6    24    25   ar
     7    25     1    1
     8     1     2   ar
     9     2     3   ar
    10     3     4   ar
    11     4     5    1
    12     4     6   ar
    13     6     8    1
    14     8     9   ar
    15     9    10   ar
    16    10    11   ar
    17    11    12   ar
    18    12    13   ar
    19    13    19    1
    20    19    20    1
    21    11    14    1
    22    14    15    2
    23    14    16   am
    24    16    17    1
    25    16    18    1
    26     6     7   ar
    27    25    26   ar
    28    26    27   ar
    29    27    28   ar
    30    28    29   ar
    31    29    21   ar
    32    29    24   ar
    33     7     1   ar
    34    13     8   ar
    35    18    10    1
@<TRIPOS>MOLECULE
*****
 31 35 0 0 0
SMALL
GASTEIGER

@<TRIPOS>ATOM
      1 C         140.4899  140.8877  161.4416 C.ar    1  UNL1        0.0033
      2 C         139.3884  141.7293  160.8687 C.ar    1  UNL1        0.0024
      3 C         138.3628  142.3416  161.7762 C.ar    1  UNL1        0.0296
      4 C         138.4389  142.1122  163.2566 C.ar    1  UNL1        0.1402
      5 F         137.4134  142.7244  164.1640 F       1  UNL1       -0.2042
      6 C         139.5405  141.2706  163.8295 C.ar    1  UNL1        0.0304
      7 C         140.5660  140.6584  162.9220 C.ar    1  UNL1        0.0024
      8 C         139.6166  141.0412  165.3099 C.ar    1  UNL1        0.0359
      9 C         140.3591  142.0100  166.1818 C.ar    1  UNL1        0.0006
     10 C         140.4351  141.7807  167.6622 C.ar    1  UNL1        0.0023
     11 C         139.7687  140.5824  168.2707 C.ar    1  UNL1        0.0542
     12 C         139.0263  139.6137  167.3988 C.ar    1  UNL1        0.0411
     13 C         138.9502  139.8430  165.9184 C.ar    1  UNL1        0.1388
     14 C         140.0123  140.6182  169.7503 C.2     1  UNL1        0.2492
     15 O         139.5245  139.6106  170.7487 O.2     1  UNL1       -0.2699
     16 N         140.8292  141.8385  170.0563 N.am    1  UNL1       -0.2702
     17 C         141.3017  142.2654  171.4145 C.3     1  UNL1        0.1155
     18 C         141.0905  142.5569  168.7658 C.3     1  UNL1        0.1206
     19 O         138.2077  138.8742  165.0465 O.3     1  UNL1       -0.4714
     20 C         138.9105  137.6677  164.4983 C.3     1  UNL1        0.2525
     21 N         144.1613  141.6556  158.1078 N.ar    1  UNL1       -0.2931
     22 C         143.5874  142.9556  158.5882 C.ar    1  UNL1        0.1797
     23 N         142.5020  142.6462  159.5761 N.ar    1  UNL1       -0.2222
     24 C         142.4051  141.1550  159.7064 C.ar    1  UNL1        0.1203
     25 C         141.5155  140.2755  160.5341 C.ar    1  UNL1        0.0417
     26 C         141.6514  138.7838  160.4543 C.ar    1  UNL1        0.1238
     27 N         142.6769  138.1716  159.5469 N.ar    1  UNL1       -0.1449
     28 N         143.5665  139.0511  158.7192 N.ar    1  UNL1       -0.1285
     29 C         143.4306  140.5428  158.7989 C.ar    1  UNL1        0.1843
     30 C         146.4278  142.4514  157.1180 C.3     1  UNL1        0.0266
     31 C         145.2711  141.4964  157.1113 C.3     1  UNL1        0.1091
@<TRIPOS>BOND
     1    30    31    1
     2    31    21    1
     3    21    22   ar
     4    22    23   ar
     5    23    24   ar
     6    24    25   ar
     7    25     1    1
     8     1     2   ar
     9     2     3   ar
    10     3     4   ar
    11     4     5    1
    12     4     6   ar
    13     6     8    1
    14     8     9   ar
    15     9    10   ar
    16    10    11   ar
    17    11    12   ar
    18    12    13   ar
    19    13    19    1
    20    19    20    1
    21    11    14    1
    22    14    15    2
    23    14    16   am
    24    16    17    1
    25    16    18    1
    26     6     7   ar
    27    25    26   ar
    28    26    27   ar
    29    27    28   ar
    30    28    29   ar
    31    29    21   ar
    32    29    24   ar
    33     7     1   ar
    34    13     8   ar
    35    18    10    1
@<TRIPOS>MOLECULE
*****
 31 35 0 0 0
SMALL
GASTEIGER

@<TRIPOS>ATOM
      1 C         142.7933  143.4596  161.9978 C.ar    1  UNL1        0.0033
      2 C         144.1140  143.2271  161.3259 C.ar    1  UNL1        0.0024
      3 C         145.1558  142.3787  161.9930 C.ar    1  UNL1        0.0296
      4 C         144.8767  141.7628  163.3320 C.ar    1  UNL1        0.1402
      5 F         145.9183  140.9144  163.9991 F       1  UNL1       -0.2042
      6 C         143.5558  141.9954  164.0038 C.ar    1  UNL1        0.0304
      7 C         142.5141  142.8438  163.3367 C.ar    1  UNL1        0.0024
      8 C         143.2767  141.3795  165.3428 C.ar    1  UNL1        0.0359
      9 C         142.9888  142.2556  166.5259 C.ar    1  UNL1        0.0006
     10 C         142.7097  141.6397  167.8649 C.ar    1  UNL1        0.0023
     11 C         142.7185  140.1478  168.0207 C.ar    1  UNL1        0.0542
     12 C         143.0063  139.2718  166.8376 C.ar    1  UNL1        0.0411
     13 C         143.2855  139.8877  165.4987 C.ar    1  UNL1        0.1388
     14 C         142.4098  139.8297  169.4537 C.2     1  UNL1        0.2492
     15 O         142.3170  138.4572  170.0519 O.2     1  UNL1       -0.2699
     16 N         142.2103  141.1249  170.1835 N.am    1  UNL1       -0.2702
     17 C         141.8830  141.2751  171.6397 C.3     1  UNL1        0.1155
     18 C         142.3957  142.2435  169.2016 C.3     1  UNL1        0.1206
     19 O         143.5733  139.0116  164.3155 O.3     1  UNL1       -0.4714
     20 C         142.4429  138.3976  163.5442 C.3     1  UNL1        0.2525
     21 N         141.0822  145.4423  157.7171 N.ar    1  UNL1       -0.2931
     22 C         142.3180  144.6264  157.4783 C.ar    1  UNL1        0.1797
     23 N         142.7677  144.0696  158.7965 N.ar    1  UNL1       -0.2222
     24 C         141.8098  144.5414  159.8501 C.ar    1  UNL1        0.1203
     25 C         141.7515  144.3081  161.3307 C.ar    1  UNL1        0.0417
     26 C         140.6516  144.9232  162.1441 C.ar    1  UNL1        0.1238
     27 N         139.6099  145.7716  161.4770 N.ar    1  UNL1       -0.1449
     28 N         139.6682  146.0049  159.9964 N.ar    1  UNL1       -0.1285
     29 C         140.7681  145.3898  159.1829 C.ar    1  UNL1        0.1843
     30 C         140.3536  145.7392  155.2410 C.3     1  UNL1        0.0266
     31 C         140.2981  146.1811  156.6734 C.3     1  UNL1        0.1091
@<TRIPOS>BOND
     1    30    31    1
     2    31    21    1
     3    21    22   ar
     4    22    23   ar
     5    23    24   ar
     6    24    25   ar
     7    25     1    1
     8     1     2   ar
     9     2     3   ar
    10     3     4   ar
    11     4     5    1
    12     4     6   ar
    13     6     8    1
    14     8     9   ar
    15     9    10   ar
    16    10    11   ar
    17    11    12   ar
    18    12    13   ar
    19    13    19    1
    20    19    20    1
    21    11    14    1
    22    14    15    2
    23    14    16   am
    24    16    17    1
    25    16    18    1
    26     6     7   ar
    27    25    26   ar
    28    26    27   ar
    29    27    28   ar
    30    28    29   ar
    31    29    21   ar
    32    29    24   ar
    33     7     1   ar
    34    13     8   ar
    35    18    10    1
@<TRIPOS>MOLECULE
*****
 31 35 0 0 0
SMALL
GASTEIGER

@<TRIPOS>ATOM
      1 C         142.2590  140.1759  161.5316 C.ar    1  UNL1        0.0033
      2 C         142.4073  138.7681  161.0354 C.ar    1  UNL1        0.0024
      3 C         142.0644  137.6164  161.9332 C.ar    1  UNL1        0.0296
      4 C         141.5731  137.8724  163.3271 C.ar    1  UNL1        0.1402
      5 F         141.2302  136.7207  164.2248 F       1  UNL1       -0.2042
      6 C         141.4248  139.2802  163.8233 C.ar    1  UNL1        0.0304
      7 C         141.7677  140.4319  162.9256 C.ar    1  UNL1        0.0024
      8 C         140.9335  139.5362  165.2173 C.ar    1  UNL1        0.0359
      9 C         141.9067  139.8911  166.3021 C.ar    1  UNL1        0.0006
     10 C         141.4154  140.1472  167.6961 C.ar    1  UNL1        0.0023
     11 C         139.9509  140.0483  168.0051 C.ar    1  UNL1        0.0542
     12 C         138.9777  139.6934  166.9203 C.ar    1  UNL1        0.0411
     13 C         139.4690  139.4374  165.5263 C.ar    1  UNL1        0.1388
     14 C         139.7630  140.3532  169.4617 C.2     1  UNL1        0.2492
     15 O         138.4562  140.3682  170.1979 O.2     1  UNL1       -0.2699
     16 N         141.1113  140.6405  170.0529 N.am    1  UNL1       -0.2702
     17 C         141.3895  140.9932  171.4841 C.3     1  UNL1        0.1155
     18 C         142.1326  140.5132  168.9617 C.3     1  UNL1        0.1206
     19 O         138.4958  139.0825  164.4414 O.3     1  UNL1       -0.4714
     20 C         137.9450  140.1541  163.5480 C.3     1  UNL1        0.2525
     21 N         140.6350  144.2626  159.1141 N.ar    1  UNL1       -0.2931
     22 C         139.5207  143.6062  159.8741 C.ar    1  UNL1        0.1797
     23 N         140.0802  142.3990  160.5667 N.ar    1  UNL1       -0.2222
     24 C         141.5403  142.3093  160.2347 C.ar    1  UNL1        0.1203
     25 C         142.6019  141.3276  160.6339 C.ar    1  UNL1        0.0417
     26 C         144.0063  141.4977  160.1354 C.ar    1  UNL1        0.1238
     27 N         144.3492  142.6494  159.2377 N.ar    1  UNL1       -0.1449
     28 N         143.2876  143.6311  158.8385 N.ar    1  UNL1       -0.1285
     29 C         141.8832  143.4610  159.3370 C.ar    1  UNL1        0.1843
     30 C         140.6736  145.4194  156.7882 C.3     1  UNL1        0.0266
     31 C         140.5212  145.5027  158.2781 C.3     1  UNL1        0.1091
@<TRIPOS>BOND
     1    30    31    1
     2    31    21    1
     3    21    22   ar
     4    22    23   ar
     5    23    24   ar
     6    24    25   ar
     7    25     1    1
     8     1     2   ar
     9     2     3   ar
    10     3     4   ar
    11     4     5    1
    12     4     6   ar
    13     6     8    1
    14     8     9   ar
    15     9    10   ar
    16    10    11   ar
    17    11    12   ar
    18    12    13   ar
    19    13    19    1
    20    19    20    1
    21    11    14    1
    22    14    15    2
    23    14    16   am
    24    16    17    1
    25    16    18    1
    26     6     7   ar
    27    25    26   ar
    28    26    27   ar
    29    27    28   ar
    30    28    29   ar
    31    29    21   ar
    32    29    24   ar
    33     7     1   ar
    34    13     8   ar
    35    18    10    1
@<TRIPOS>MOLECULE
*****
 31 35 0 0 0
SMALL
GASTEIGER

@<TRIPOS>ATOM
      1 C         139.8603  139.6759  161.5472 C.ar    1  UNL1        0.0033
      2 C         138.8912  138.5409  161.3968 C.ar    1  UNL1        0.0024
      3 C         138.5232  137.7061  162.5875 C.ar    1  UNL1        0.0296
      4 C         139.1245  138.0063  163.9286 C.ar    1  UNL1        0.1402
      5 F         138.7565  137.1715  165.1193 F       1  UNL1       -0.2042
      6 C         140.0937  139.1413  164.0789 C.ar    1  UNL1        0.0304
      7 C         140.4616  139.9760  162.8882 C.ar    1  UNL1        0.0024
      8 C         140.6949  139.4415  165.4200 C.ar    1  UNL1        0.0359
      9 C         139.8838  140.1506  166.4637 C.ar    1  UNL1        0.0006
     10 C         140.4850  140.4507  167.8048 C.ar    1  UNL1        0.0023
     11 C         141.8973  140.0418  168.1021 C.ar    1  UNL1        0.0542
     12 C         142.7083  139.3327  167.0583 C.ar    1  UNL1        0.0411
     13 C         142.1071  139.0326  165.7172 C.ar    1  UNL1        0.1388
     14 C         142.2185  140.4696  169.5034 C.2     1  UNL1        0.2492
     15 O         143.5242  140.2608  170.2116 O.2     1  UNL1       -0.2699
     16 N         141.0048  141.1430  170.0722 N.am    1  UNL1       -0.2702
     17 C         140.8837  141.7257  171.4492 C.3     1  UNL1        0.1155
     18 C         139.9335  141.1313  169.0224 C.3     1  UNL1        0.1206
     19 O         142.9181  138.3234  164.6735 O.3     1  UNL1       -0.4714
     20 C         143.9684  139.0693  163.9050 C.3     1  UNL1        0.2525
     21 N         140.2225  144.2769  159.5769 N.ar    1  UNL1       -0.2931
     22 C         139.7076  144.3313  160.9847 C.ar    1  UNL1        0.1797
     23 N         139.6271  142.9261  161.5034 N.ar    1  UNL1       -0.2222
     24 C         140.0923  142.0033  160.4161 C.ar    1  UNL1        0.1203
     25 C         140.2283  140.5107  160.3564 C.ar    1  UNL1        0.0417
     26 C         140.7323  139.8529  159.1061 C.ar    1  UNL1        0.1238
     27 N         141.1002  140.6877  157.9155 N.ar    1  UNL1       -0.1449
     28 N         140.9642  142.1803  157.9752 N.ar    1  UNL1       -0.1285
     29 C         140.4602  142.8381  159.2255 C.ar    1  UNL1        0.1843
     30 C         141.7973  145.6472  158.0302 C.3     1  UNL1        0.0266
     31 C         140.4583  145.4545  158.6782 C.3     1  UNL1        0.1091
@<TRIPOS>BOND
     1    30    31    1
     2    31    21    1
     3    21    22   ar
     4    22    23   ar
     5    23    24   ar
     6    24    25   ar
     7    25     1    1
     8     1     2   ar
     9     2     3   ar
    10     3     4   ar
    11     4     5    1
    12     4     6   ar
    13     6     8    1
    14     8     9   ar
    15     9    10   ar
    16    10    11   ar
    17    11    12   ar
    18    12    13   ar
    19    13    19    1
    20    19    20    1
    21    11    14    1
    22    14    15    2
    23    14    16   am
    24    16    17    1
    25    16    18    1
    26     6     7   ar
    27    25    26   ar
    28    26    27   ar
    29    27    28   ar
    30    28    29   ar
    31    29    21   ar
    32    29    24   ar
    33     7     1   ar
    34    13     8   ar
    35    18    10    1
@<TRIPOS>MOLECULE
*****
 31 35 0 0 0
SMALL
GASTEIGER

@<TRIPOS>ATOM
      1 C         140.1921  138.9736  164.4356 C.ar    1  UNL1        0.0033
      2 C         140.6188  137.6198  163.9509 C.ar    1  UNL1        0.0024
      3 C         141.2141  137.4663  162.5826 C.ar    1  UNL1        0.0296
      4 C         141.3827  138.6668  161.6991 C.ar    1  UNL1        0.1402
      5 F         141.9780  138.5134  160.3309 F       1  UNL1       -0.2042
      6 C         140.9560  140.0207  162.1839 C.ar    1  UNL1        0.0304
      7 C         140.3607  140.1741  163.5522 C.ar    1  UNL1        0.0024
      8 C         141.1246  141.2211  161.3005 C.ar    1  UNL1        0.0359
      9 C         140.1314  141.4954  160.2103 C.ar    1  UNL1        0.0006
     10 C         140.3000  142.6958  159.3268 C.ar    1  UNL1        0.0023
     11 C         141.4618  143.6219  159.5335 C.ar    1  UNL1        0.0542
     12 C         142.4549  143.3476  160.6236 C.ar    1  UNL1        0.0411
     13 C         142.2863  142.1472  161.5071 C.ar    1  UNL1        0.1388
     14 C         141.3680  144.7179  158.5137 C.2     1  UNL1        0.2492
     15 O         142.3258  145.8618  158.3581 O.2     1  UNL1       -0.2699
     16 N         140.1483  144.4691  157.6767 N.am    1  UNL1       -0.2702
     17 C         139.6723  145.3206  156.5372 C.3     1  UNL1        0.1155
     18 C         139.4883  143.2194  158.1792 C.3     1  UNL1        0.1206
     19 O         143.2795  141.8729  162.5973 O.3     1  UNL1       -0.4714
     20 C         143.3017  142.7335  163.8256 C.3     1  UNL1        0.2525
     21 N         140.5735  141.0507  168.9879 N.ar    1  UNL1       -0.2931
     22 C         141.7194  141.4590  168.1102 C.ar    1  UNL1        0.1797
     23 N         141.5367  140.8024  166.7740 N.ar    1  UNL1       -0.2222
     24 C         140.2779  139.9883  166.8259 C.ar    1  UNL1        0.1203
     25 C         139.5968  139.1271  165.8039 C.ar    1  UNL1        0.0417
     26 C         138.3204  138.4194  166.1502 C.ar    1  UNL1        0.1238
     27 N         137.7252  138.5728  167.5184 N.ar    1  UNL1       -0.1449
     28 N         138.4063  139.4341  168.5404 N.ar    1  UNL1       -0.1285
     29 C         139.6826  140.1418  168.1941 C.ar    1  UNL1        0.1843
     30 C         139.7269  142.8052  170.7069 C.3     1  UNL1        0.0266
     31 C         140.3566  141.4766  170.4097 C.3     1  UNL1        0.1091
@<TRIPOS>BOND
     1    30    31    1
     2    31    21    1
     3    21    22   ar
     4    22    23   ar
     5    23    24   ar
     6    24    25   ar
     7    25     1    1
     8     1     2   ar
     9     2     3   ar
    10     3     4   ar
    11     4     5    1
    12     4     6   ar
    13     6     8    1
    14     8     9   ar
    15     9    10   ar
    16    10    11   ar
    17    11    12   ar
    18    12    13   ar
    19    13    19    1
    20    19    20    1
    21    11    14    1
    22    14    15    2
    23    14    16   am
    24    16    17    1
    25    16    18    1
    26     6     7   ar
    27    25    26   ar
    28    26    27   ar
    29    27    28   ar
    30    28    29   ar
    31    29    21   ar
    32    29    24   ar
    33     7     1   ar
    34    13     8   ar
    35    18    10    1
@<TRIPOS>MOLECULE
*****
 31 35 0 0 0
SMALL
GASTEIGER

@<TRIPOS>ATOM
      1 C         140.1522  142.4165  161.2821 C.ar    1  UNL1        0.0033
      2 C         138.7112  142.1303  160.9796 C.ar    1  UNL1        0.0024
      3 C         137.8660  141.3980  161.9793 C.ar    1  UNL1        0.0296
      4 C         138.4619  140.9519  163.2816 C.ar    1  UNL1        0.1402
      5 F         137.6168  140.2197  164.2814 F       1  UNL1       -0.2042
      6 C         139.9030  141.2381  163.5841 C.ar    1  UNL1        0.0304
      7 C         140.7481  141.9703  162.5843 C.ar    1  UNL1        0.0024
      8 C         140.4989  140.7920  164.8863 C.ar    1  UNL1        0.0359
      9 C         140.2534  141.5866  166.1347 C.ar    1  UNL1        0.0006
     10 C         140.8493  141.1405  167.4370 C.ar    1  UNL1        0.0023
     11 C         141.6907  139.8998  167.4909 C.ar    1  UNL1        0.0542
     12 C         141.9361  139.1052  166.2425 C.ar    1  UNL1        0.0411
     13 C         141.3402  139.5513  164.9402 C.ar    1  UNL1        0.1388
     14 C         142.1431  139.7077  168.9080 C.2     1  UNL1        0.2492
     15 O         143.0058  138.5900  169.4143 O.2     1  UNL1       -0.2699
     16 N         141.5814  140.8297  169.7300 N.am    1  UNL1       -0.2702
     17 C         141.7838  141.0309  171.2027 C.3     1  UNL1        0.1155
     18 C         140.7818  141.7152  168.8209 C.3     1  UNL1        0.1206
     19 O         141.5857  138.7567  163.6918 O.3     1  UNL1       -0.4714
     20 C         141.2011  137.3079  163.6372 C.3     1  UNL1        0.2525
     21 N         143.5955  142.1072  157.6447 N.ar    1  UNL1       -0.2931
     22 C         143.2576  140.7494  158.1854 C.ar    1  UNL1        0.1797
     23 N         142.2280  140.9224  159.2623 N.ar    1  UNL1       -0.2222
     24 C         141.9296  142.3872  159.3873 C.ar    1  UNL1        0.1203
     25 C         140.9974  143.1487  160.2823 C.ar    1  UNL1        0.0417
     26 C         140.9103  144.6425  160.1775 C.ar    1  UNL1        0.1238
     27 N         141.7555  145.3747  159.1778 N.ar    1  UNL1       -0.1449
     28 N         142.6877  144.6132  158.2828 N.ar    1  UNL1       -0.1285
     29 C         142.7747  143.1194  158.3875 C.ar    1  UNL1        0.1843
     30 C         146.0163  141.9938  156.7084 C.3     1  UNL1        0.0266
     31 C         144.5812  142.4013  156.5529 C.3     1  UNL1        0.1091
@<TRIPOS>BOND
     1    30    31    1
     2    31    21    1
     3    21    22   ar
     4    22    23   ar
     5    23    24   ar
     6    24    25   ar
     7    25     1    1
     8     1     2   ar
     9     2     3   ar
    10     3     4   ar
    11     4     5    1
    12     4     6   ar
    13     6     8    1
    14     8     9   ar
    15     9    10   ar
    16    10    11   ar
    17    11    12   ar
    18    12    13   ar
    19    13    19    1
    20    19    20    1
    21    11    14    1
    22    14    15    2
    23    14    16   am
    24    16    17    1
    25    16    18    1
    26     6     7   ar
    27    25    26   ar
    28    26    27   ar
    29    27    28   ar
    30    28    29   ar
    31    29    21   ar
    32    29    24   ar
    33     7     1   ar
    34    13     8   ar
    35    18    10    1
@<TRIPOS>MOLECULE
*****
 31 35 0 0 0
SMALL
GASTEIGER

@<TRIPOS>ATOM
      1 C         140.1496  138.7290  164.4625 C.ar    1  UNL1        0.0033
      2 C         140.9131  137.4679  164.1853 C.ar    1  UNL1        0.0024
      3 C         141.5377  137.2499  162.8389 C.ar    1  UNL1        0.0296
      4 C         141.3987  138.2929  161.7699 C.ar    1  UNL1        0.1402
      5 F         142.0231  138.0749  160.4237 F       1  UNL1       -0.2042
      6 C         140.6351  139.5540  162.0472 C.ar    1  UNL1        0.0304
      7 C         140.0107  139.7720  163.3935 C.ar    1  UNL1        0.0024
      8 C         140.4962  140.5970  160.9782 C.ar    1  UNL1        0.0359
      9 C         141.4764  141.7300  160.9038 C.ar    1  UNL1        0.0006
     10 C         141.3375  142.7730  159.8348 C.ar    1  UNL1        0.0023
     11 C         140.2182  142.6830  158.8402 C.ar    1  UNL1        0.0542
     12 C         139.2380  141.5501  158.9146 C.ar    1  UNL1        0.0411
     13 C         139.3770  140.5071  159.9836 C.ar    1  UNL1        0.1388
     14 C         140.3343  143.8501  157.9050 C.2     1  UNL1        0.2492
     15 O         139.4199  144.1527  156.7551 O.2     1  UNL1       -0.2699
     16 N         141.5252  144.6613  158.3216 N.am    1  UNL1       -0.2702
     17 C         142.0109  145.9176  157.6614 C.3     1  UNL1        0.1155
     18 C         142.1452  143.9956  159.5143 C.3     1  UNL1        0.1206
     19 O         138.3967  139.3741  160.0580 O.3     1  UNL1       -0.4714
     20 C         137.1607  139.5056  160.8975 C.3     1  UNL1        0.2525
     21 N         140.4544  140.9896  168.9323 N.ar    1  UNL1       -0.2931
     22 C         141.6256  141.3463  168.0657 C.ar    1  UNL1        0.1797
     23 N         141.4648  140.6368  166.7540 N.ar    1  UNL1       -0.2222
     24 C         140.1942  139.8415  166.8099 C.ar    1  UNL1        0.1203
     25 C         139.5251  138.9470  165.8088 C.ar    1  UNL1        0.0417
     26 C         138.2316  138.2705  166.1540 C.ar    1  UNL1        0.1238
     27 N         137.6071  138.4886  167.5002 N.ar    1  UNL1       -0.1449
     28 N         138.2762  139.3831  168.5013 N.ar    1  UNL1       -0.1285
     29 C         139.5697  140.0596  168.1562 C.ar    1  UNL1        0.1843
     30 C         139.8071  142.9023  170.5671 C.3     1  UNL1        0.0266
     31 C         140.2106  141.4772  170.3297 C.3     1  UNL1        0.1091
@<TRIPOS>BOND
     1    30    31    1
     2    31    21    1
     3    21    22   ar
     4    22    23   ar
     5    23    24   ar
     6    24    25   ar
     7    25     1    1
     8     1     2   ar
     9     2     3   ar
    10     3     4   ar
    11     4     5    1
    12     4     6   ar
    13     6     8    1
    14     8     9   ar
    15     9    10   ar
    16    10    11   ar
    17    11    12   ar
    18    12    13   ar
    19    13    19    1
    20    19    20    1
    21    11    14    1
    22    14    15    2
    23    14    16   am
    24    16    17    1
    25    16    18    1
    26     6     7   ar
    27    25    26   ar
    28    26    27   ar
    29    27    28   ar
    30    28    29   ar
    31    29    21   ar
    32    29    24   ar
    33     7     1   ar
    34    13     8   ar
    35    18    10    1
@<TRIPOS>MOLECULE
*****
 31 35 0 0 0
SMALL
GASTEIGER

@<TRIPOS>ATOM
      1 C         138.7328  141.0222  164.1989 C.ar    1  UNL1        0.0033
      2 C         137.8730  142.2102  163.8838 C.ar    1  UNL1        0.0024
      3 C         137.7840  142.7192  162.4755 C.ar    1  UNL1        0.0296
      4 C         138.5548  142.0401  161.3825 C.ar    1  UNL1        0.1402
      5 F         138.4659  142.5491  159.9743 F       1  UNL1       -0.2042
      6 C         139.4146  140.8520  161.6977 C.ar    1  UNL1        0.0304
      7 C         139.5036  140.3431  163.1059 C.ar    1  UNL1        0.0024
      8 C         140.1854  140.1730  160.6047 C.ar    1  UNL1        0.0359
      9 C         139.4718  139.3028  159.6129 C.ar    1  UNL1        0.0006
     10 C         140.2426  138.6237  158.5198 C.ar    1  UNL1        0.0023
     11 C         141.7270  138.8148  158.4186 C.ar    1  UNL1        0.0542
     12 C         142.4405  139.6849  159.4104 C.ar    1  UNL1        0.0411
     13 C         141.6697  140.3640  160.5035 C.ar    1  UNL1        0.1388
     14 C         142.2171  138.0231  157.2426 C.2     1  UNL1        0.2492
     15 O         143.6390  137.9285  156.7744 O.2     1  UNL1       -0.2699
     16 N         141.0357  137.3428  156.6169 N.am    1  UNL1       -0.2702
     17 C         141.0687  136.4483  155.4132 C.3     1  UNL1        0.1155
     18 C         139.8154  137.7140  157.4063 C.3     1  UNL1        0.1206
     19 O         142.3833  141.2342  161.4953 O.3     1  UNL1       -0.4714
     20 C         143.5115  140.6737  162.3096 C.3     1  UNL1        0.2525
     21 N         140.8100  141.5287  168.7389 N.ar    1  UNL1       -0.2931
     22 C         141.3290  142.5669  167.7887 C.ar    1  UNL1        0.1797
     23 N         140.6660  142.3523  166.4604 N.ar    1  UNL1       -0.2222
     24 C         139.7371  141.1815  166.5898 C.ar    1  UNL1        0.1203
     25 C         138.8218  140.5132  165.6072 C.ar    1  UNL1        0.0417
     26 C         137.9955  139.3359  166.0328 C.ar    1  UNL1        0.1238
     27 N         138.0845  138.8270  167.4409 N.ar    1  UNL1       -0.1449
     28 N         138.9998  139.4953  168.4235 N.ar    1  UNL1       -0.1285
     29 C         139.8261  140.6726  167.9979 C.ar    1  UNL1        0.1843
     30 C         142.1914  140.3157  170.5747 C.3     1  UNL1        0.0266
     31 C         141.2053  141.3740  170.1775 C.3     1  UNL1        0.1091
@<TRIPOS>BOND
     1    30    31    1
     2    31    21    1
     3    21    22   ar
     4    22    23   ar
     5    23    24   ar
     6    24    25   ar
     7    25     1    1
     8     1     2   ar
     9     2     3   ar
    10     3     4   ar
    11     4     5    1
    12     4     6   ar
    13     6     8    1
    14     8     9   ar
    15     9    10   ar
    16    10    11   ar
    17    11    12   ar
    18    12    13   ar
    19    13    19    1
    20    19    20    1
    21    11    14    1
    22    14    15    2
    23    14    16   am
    24    16    17    1
    25    16    18    1
    26     6     7   ar
    27    25    26   ar
    28    26    27   ar
    29    27    28   ar
    30    28    29   ar
    31    29    21   ar
    32    29    24   ar
    33     7     1   ar
    34    13     8   ar
    35    18    10    1
