@<TRIPOS>MOLECULE
*****
 32 34 0 0 0
SMALL
GASTEIGER

@<TRIPOS>ATOM
      1 C         138.8491  138.2490  162.3196 C.2     1  UNL1        0.2271
      2 O         137.5024  138.6552  161.7989 O.2     1  UNL1       -0.2747
      3 N         140.0858  138.5749  161.5358 N.am    1  UNL1       -0.3005
      4 H         140.9697  138.3083  161.8776 H       1  UNL1        0.1497
      5 C         139.9757  139.3071  160.2313 C.3     1  UNL1        0.1119
      6 C         139.8925  138.5395  158.9452 C.3     1  UNL1        0.0278
      7 C         139.9489  140.8067  160.2128 C.ar    1  UNL1        0.0770
      8 C         138.6367  141.5330  160.1877 C.ar    1  UNL1        0.0195
      9 C         138.6099  143.0327  160.1692 C.ar    1  UNL1        0.0398
     10 C         139.8952  143.8060  160.1759 C.ar    1  UNL1        0.1580
     11 C         141.2073  143.0796  160.2011 C.ar    1  UNL1        0.1353
     12 N         141.2342  141.5800  160.2195 N.ar    1  UNL1       -0.2433
     13 O         139.8683  145.3056  160.1574 O.3     1  UNL1       -0.4650
     14 C         139.7390  146.0693  161.4420 C.3     1  UNL1        0.3082
     15 C         139.8738  145.3567  162.7550 C.3     1  UNL1        0.4380
     16 F         140.0086  144.6442  164.0680 F       1  UNL1       -0.1663
     17 F         138.3877  145.1577  162.7996 F       1  UNL1       -0.1663
     18 F         141.3598  145.5558  162.7105 F       1  UNL1       -0.1663
     19 C         138.9592  137.5168  163.6242 C.3     1  UNL1        0.1113
     20 C         139.9760  139.7650  167.3873 C.ar    1  UNL1        0.0188
     21 C         138.5622  139.3355  167.1291 C.ar    1  UNL1        0.0012
     22 C         138.2233  138.5861  165.8748 C.ar    1  UNL1       -0.0037
     23 C         139.2981  138.2662  164.8785 C.ar    1  UNL1       -0.0131
     24 C         140.7119  138.6958  165.1367 C.ar    1  UNL1       -0.0037
     25 C         141.0508  139.4452  166.3912 C.ar    1  UNL1        0.0012
     26 C         140.3880  142.7352  167.2954 C.3     1  UNL1        0.0537
     27 C         140.5209  141.9995  168.5958 C.ar    1  UNL1        0.0770
     28 N         140.8598  142.7489  169.8502 N.ar    1  UNL1       -0.2450
     29 C         140.9927  142.0132  171.1506 C.ar    1  UNL1        0.1191
     30 C         140.7867  140.5281  171.1966 C.ar    1  UNL1        0.1194
     31 N         140.4478  139.7788  169.9422 N.ar    1  UNL1       -0.2410
     32 C         140.3149  140.5145  168.6418 C.ar    1  UNL1        0.0948
@<TRIPOS>BOND
     1    26    27    1
     2    27    28   ar
     3    28    29   ar
     4    29    30   ar
     5    30    31   ar
     6    31    32   ar
     7    32    20    1
     8    20    21   ar
     9    21    22   ar
    10    22    23   ar
    11    23    19    1
    12    19     1    1
    13     1     2    2
    14     1     3   am
    15     3     5    1
    16     5     6    1
    17     5     7    1
    18     7     8   ar
    19     8     9   ar
    20     9    10   ar
    21    10    13    1
    22    13    14    1
    23    14    15    1
    24    15    16    1
    25    15    17    1
    26    15    18    1
    27    10    11   ar
    28    11    12   ar
    29    23    24   ar
    30    24    25   ar
    31    32    27   ar
    32    25    20   ar
    33    12     7   ar
    34     3     4    1
@<TRIPOS>MOLECULE
*****
 32 34 0 0 0
SMALL
GASTEIGER

@<TRIPOS>ATOM
      1 C         144.3984  140.0499  162.2936 C.2     1  UNL1        0.2271
      2 O         145.2132  141.2823  162.0340 O.2     1  UNL1       -0.2747
      3 N         143.3354  139.6349  161.3201 N.am    1  UNL1       -0.3005
      4 H         142.8006  138.8261  161.4905 H       1  UNL1        0.1497
      5 C         143.0872  140.4522  160.0871 C.3     1  UNL1        0.1119
      6 C         143.7031  140.0456  158.7812 C.3     1  UNL1        0.0278
      7 C         142.2231  141.6761  160.1599 C.ar    1  UNL1        0.0770
      8 C         142.8234  143.0324  159.9361 C.ar    1  UNL1        0.0195
      9 C         141.9592  144.2564  160.0089 C.ar    1  UNL1        0.0398
     10 C         140.4948  144.1240  160.3055 C.ar    1  UNL1        0.1580
     11 C         139.8945  142.7676  160.5293 C.ar    1  UNL1        0.1353
     12 N         140.7586  141.5437  160.4565 N.ar    1  UNL1       -0.2433
     13 O         139.6307  145.3479  160.3783 O.3     1  UNL1       -0.4650
     14 C         139.5922  146.1651  161.6356 C.3     1  UNL1        0.3082
     15 C         139.7396  145.4960  162.9699 C.3     1  UNL1        0.4380
     16 F         139.8869  144.8268  164.3042 F       1  UNL1       -0.1663
     17 F         138.2972  145.0868  162.9240 F       1  UNL1       -0.1663
     18 F         141.1819  145.9051  163.0158 F       1  UNL1       -0.1663
     19 C         144.6466  139.2326  163.5266 C.3     1  UNL1        0.1113
     20 C         142.5584  140.2738  167.3744 C.ar    1  UNL1        0.0188
     21 C         143.0411  138.8734  167.1382 C.ar    1  UNL1        0.0012
     22 C         143.7371  138.5263  165.8556 C.ar    1  UNL1       -0.0037
     23 C         143.9505  139.5797  164.8092 C.ar    1  UNL1       -0.0131
     24 C         143.4678  140.9801  165.0454 C.ar    1  UNL1       -0.0037
     25 C         142.7717  141.3272  166.3280 C.ar    1  UNL1        0.0012
     26 C         139.5796  139.9890  167.5892 C.3     1  UNL1        0.0537
     27 C         140.3729  140.4785  168.7644 C.ar    1  UNL1        0.0770
     28 N         139.6769  140.8255  170.0470 N.ar    1  UNL1       -0.2450
     29 C         140.4702  141.3149  171.2222 C.ar    1  UNL1        0.1191
     30 C         141.9596  141.4573  171.1148 C.ar    1  UNL1        0.1194
     31 N         142.6556  141.1103  169.8322 N.ar    1  UNL1       -0.2410
     32 C         141.8623  140.6209  168.6570 C.ar    1  UNL1        0.0948
@<TRIPOS>BOND
     1    26    27    1
     2    27    28   ar
     3    28    29   ar
     4    29    30   ar
     5    30    31   ar
     6    31    32   ar
     7    32    20    1
     8    20    21   ar
     9    21    22   ar
    10    22    23   ar
    11    23    19    1
    12    19     1    1
    13     1     2    2
    14     1     3   am
    15     3     5    1
    16     5     6    1
    17     5     7    1
    18     7     8   ar
    19     8     9   ar
    20     9    10   ar
    21    10    13    1
    22    13    14    1
    23    14    15    1
    24    15    16    1
    25    15    17    1
    26    15    18    1
    27    10    11   ar
    28    11    12   ar
    29    23    24   ar
    30    24    25   ar
    31    32    27   ar
    32    25    20   ar
    33    12     7   ar
    34     3     4    1
@<TRIPOS>MOLECULE
*****
 32 34 0 0 0
SMALL
GASTEIGER

@<TRIPOS>ATOM
      1 C         140.0889  138.2923  161.7243 C.2     1  UNL1        0.2271
      2 O         141.3307  139.1201  161.5739 O.2     1  UNL1       -0.2747
      3 N         139.1199  138.1798  160.5849 N.am    1  UNL1       -0.3005
      4 H         138.3049  137.6365  160.6836 H       1  UNL1        0.1497
      5 C         139.3928  138.8951  159.2949 C.3     1  UNL1        0.1119
      6 C         138.8564  140.2788  159.0766 C.3     1  UNL1        0.0278
      7 C         140.2020  138.2266  158.2233 C.ar    1  UNL1        0.0770
      8 C         141.6985  138.1989  158.3210 C.ar    1  UNL1        0.0195
      9 C         142.5078  137.5304  157.2494 C.ar    1  UNL1        0.0398
     10 C         141.8205  136.8897  156.0802 C.ar    1  UNL1        0.1580
     11 C         140.3239  136.9174  155.9826 C.ar    1  UNL1        0.1353
     12 N         139.5147  137.5859  157.0541 N.ar    1  UNL1       -0.2433
     13 O         142.6297  136.2212  155.0086 O.3     1  UNL1       -0.4650
     14 C         142.5391  134.7363  154.8166 C.3     1  UNL1        0.3082
     15 C         142.6222  133.8204  156.0016 C.3     1  UNL1        0.4380
     16 F         142.7052  132.9045  157.1866 F       1  UNL1       -0.1663
     17 F         144.0024  134.3278  156.2971 F       1  UNL1       -0.1663
     18 F         141.2419  133.3130  155.7061 F       1  UNL1       -0.1663
     19 C         139.8160  137.5771  163.0143 C.3     1  UNL1        0.1113
     20 C         140.1778  139.7736  166.9251 C.ar    1  UNL1        0.0188
     21 C         141.4055  139.2404  166.2480 C.ar    1  UNL1        0.0012
     22 C         141.2849  138.5083  164.9444 C.ar    1  UNL1       -0.0037
     23 C         139.9366  138.3092  164.3179 C.ar    1  UNL1       -0.0131
     24 C         138.7089  138.8424  164.9950 C.ar    1  UNL1       -0.0037
     25 C         138.8295  139.5746  166.2987 C.ar    1  UNL1        0.0012
     26 C         140.4647  142.7598  166.9475 C.3     1  UNL1        0.0537
     27 C         140.4419  141.9988  168.2399 C.ar    1  UNL1        0.0770
     28 N         140.5625  142.7309  169.5435 N.ar    1  UNL1       -0.2450
     29 C         140.5398  141.9699  170.8360 C.ar    1  UNL1        0.1191
     30 C         140.3963  140.4769  170.8248 C.ar    1  UNL1        0.1194
     31 N         140.2757  139.7448  169.5212 N.ar    1  UNL1       -0.2410
     32 C         140.2985  140.5057  168.2288 C.ar    1  UNL1        0.0948
@<TRIPOS>BOND
     1    26    27    1
     2    27    28   ar
     3    28    29   ar
     4    29    30   ar
     5    30    31   ar
     6    31    32   ar
     7    32    20    1
     8    20    21   ar
     9    21    22   ar
    10    22    23   ar
    11    23    19    1
    12    19     1    1
    13     1     2    2
    14     1     3   am
    15     3     5    1
    16     5     6    1
    17     5     7    1
    18     7     8   ar
    19     8     9   ar
    20     9    10   ar
    21    10    13    1
    22    13    14    1
    23    14    15    1
    24    15    16    1
    25    15    17    1
    26    15    18    1
    27    10    11   ar
    28    11    12   ar
    29    23    24   ar
    30    24    25   ar
    31    32    27   ar
    32    25    20   ar
    33    12     7   ar
    34     3     4    1
@<TRIPOS>MOLECULE
*****
 32 34 0 0 0
SMALL
GASTEIGER

@<TRIPOS>ATOM
      1 C         140.4635  145.2057  160.9206 C.2     1  UNL1        0.2271
      2 O         139.3594  144.3056  160.4509 O.2     1  UNL1       -0.2747
      3 N         141.6191  145.5109  160.0143 N.am    1  UNL1       -0.3005
      4 H         142.3438  146.1017  160.3226 H       1  UNL1        0.1497
      5 C         141.6707  144.9159  158.6383 C.3     1  UNL1        0.1119
      6 C         142.3011  143.5715  158.4257 C.3     1  UNL1        0.0278
      7 C         141.0918  145.6653  157.4751 C.ar    1  UNL1        0.0770
      8 C         141.7478  145.5832  156.1287 C.ar    1  UNL1        0.0195
      9 C         141.1690  146.3326  154.9653 C.ar    1  UNL1        0.0398
     10 C         139.9340  147.1641  155.1484 C.ar    1  UNL1        0.1580
     11 C         139.2780  147.2462  156.4949 C.ar    1  UNL1        0.1353
     12 N         139.8568  146.4968  157.6581 N.ar    1  UNL1       -0.2433
     13 O         139.3552  147.9134  153.9851 O.3     1  UNL1       -0.4650
     14 C         139.8765  149.2761  153.6364 C.3     1  UNL1        0.3082
     15 C         139.9013  150.3580  154.6750 C.3     1  UNL1        0.4380
     16 F         139.9262  151.4399  155.7136 F       1  UNL1       -0.1663
     17 F         141.3413  150.6310  154.3561 F       1  UNL1       -0.1663
     18 F         138.4613  150.0850  154.9939 F       1  UNL1       -0.1663
     19 C         140.4120  145.8007  162.2966 C.3     1  UNL1        0.1113
     20 C         140.3581  143.1165  165.9080 C.ar    1  UNL1        0.0188
     21 C         141.5658  143.1537  165.0191 C.ar    1  UNL1        0.0012
     22 C         141.5838  144.0484  163.8153 C.ar    1  UNL1       -0.0037
     23 C         140.3940  144.9060  163.5004 C.ar    1  UNL1       -0.0131
     24 C         139.1863  144.8688  164.3893 C.ar    1  UNL1       -0.0037
     25 C         139.1684  143.9741  165.5931 C.ar    1  UNL1        0.0012
     26 C         139.2002  140.3562  165.7083 C.3     1  UNL1        0.0537
     27 C         139.7612  140.8416  167.0120 C.ar    1  UNL1        0.0770
     28 N         139.7433  139.9470  168.2158 N.ar    1  UNL1       -0.2450
     29 C         140.3043  140.4324  169.5194 C.ar    1  UNL1        0.1191
     30 C         140.8833  141.8125  169.6193 C.ar    1  UNL1        0.1194
     31 N         140.9012  142.7072  168.4155 N.ar    1  UNL1       -0.2410
     32 C         140.3402  142.2218  167.1118 C.ar    1  UNL1        0.0948
@<TRIPOS>BOND
     1    26    27    1
     2    27    28   ar
     3    28    29   ar
     4    29    30   ar
     5    30    31   ar
     6    31    32   ar
     7    32    20    1
     8    20    21   ar
     9    21    22   ar
    10    22    23   ar
    11    23    19    1
    12    19     1    1
    13     1     2    2
    14     1     3   am
    15     3     5    1
    16     5     6    1
    17     5     7    1
    18     7     8   ar
    19     8     9   ar
    20     9    10   ar
    21    10    13    1
    22    13    14    1
    23    14    15    1
    24    15    16    1
    25    15    17    1
    26    15    18    1
    27    10    11   ar
    28    11    12   ar
    29    23    24   ar
    30    24    25   ar
    31    32    27   ar
    32    25    20   ar
    33    12     7   ar
    34     3     4    1
@<TRIPOS>MOLECULE
*****
 32 34 0 0 0
SMALL
GASTEIGER

@<TRIPOS>ATOM
      1 C         140.6159  145.0827  161.1262 C.2     1  UNL1        0.2271
      2 O         139.4494  144.3359  160.5503 O.2     1  UNL1       -0.2747
      3 N         141.8796  145.2279  160.3314 N.am    1  UNL1       -0.3005
      4 H         142.6452  145.7180  160.7093 H       1  UNL1        0.1497
      5 C         141.9770  144.6263  158.9608 C.3     1  UNL1        0.1119
      6 C         141.7360  145.4773  157.7493 C.3     1  UNL1        0.0278
      7 C         142.3153  143.1736  158.8016 C.ar    1  UNL1        0.0770
      8 C         143.7267  142.7062  159.0002 C.ar    1  UNL1        0.0195
      9 C         144.0651  141.2535  158.8410 C.ar    1  UNL1        0.0398
     10 C         142.9920  140.2683  158.4833 C.ar    1  UNL1        0.1580
     11 C         141.5806  140.7358  158.2848 C.ar    1  UNL1        0.1353
     12 N         141.2423  142.1884  158.4439 N.ar    1  UNL1       -0.2433
     13 O         143.3304  138.8157  158.3241 O.3     1  UNL1       -0.4650
     14 C         142.8426  137.8172  159.3318 C.3     1  UNL1        0.3082
     15 C         142.8082  138.1765  160.7877 C.3     1  UNL1        0.4380
     16 F         142.7738  138.5358  162.2435 F       1  UNL1       -0.1663
     17 F         141.3087  138.1630  160.7556 F       1  UNL1       -0.1663
     18 F         144.3078  138.1901  160.8197 F       1  UNL1       -0.1663
     19 C         140.5185  145.6843  162.4968 C.3     1  UNL1        0.1113
     20 C         140.3291  143.0173  166.1164 C.ar    1  UNL1        0.0188
     21 C         141.5596  143.0314  165.2587 C.ar    1  UNL1        0.0012
     22 C         141.6228  143.9204  164.0522 C.ar    1  UNL1       -0.0037
     23 C         140.4553  144.7953  163.7033 C.ar    1  UNL1       -0.0131
     24 C         139.2248  144.7812  164.5610 C.ar    1  UNL1       -0.0037
     25 C         139.1617  143.8922  165.7675 C.ar    1  UNL1        0.0012
     26 C         139.2927  140.2136  165.8612 C.3     1  UNL1        0.0537
     27 C         139.7478  140.7265  167.1954 C.ar    1  UNL1        0.0770
     28 N         139.6847  139.8375  168.4019 N.ar    1  UNL1       -0.2450
     29 C         140.1397  140.3504  169.7360 C.ar    1  UNL1        0.1191
     30 C         140.6579  141.7523  169.8636 C.ar    1  UNL1        0.1194
     31 N         140.7210  142.6412  168.6571 N.ar    1  UNL1       -0.2410
     32 C         140.2659  142.1283  167.3229 C.ar    1  UNL1        0.0948
@<TRIPOS>BOND
     1    26    27    1
     2    27    28   ar
     3    28    29   ar
     4    29    30   ar
     5    30    31   ar
     6    31    32   ar
     7    32    20    1
     8    20    21   ar
     9    21    22   ar
    10    22    23   ar
    11    23    19    1
    12    19     1    1
    13     1     2    2
    14     1     3   am
    15     3     5    1
    16     5     6    1
    17     5     7    1
    18     7     8   ar
    19     8     9   ar
    20     9    10   ar
    21    10    13    1
    22    13    14    1
    23    14    15    1
    24    15    16    1
    25    15    17    1
    26    15    18    1
    27    10    11   ar
    28    11    12   ar
    29    23    24   ar
    30    24    25   ar
    31    32    27   ar
    32    25    20   ar
    33    12     7   ar
    34     3     4    1
@<TRIPOS>MOLECULE
*****
 32 34 0 0 0
SMALL
GASTEIGER

@<TRIPOS>ATOM
      1 C         140.8573  137.9354  162.3492 C.2     1  UNL1        0.2271
      2 O         139.4586  137.7603  161.8365 O.2     1  UNL1       -0.2747
      3 N         141.8482  138.7429  161.5643 N.am    1  UNL1       -0.3005
      4 H         142.7662  138.8578  161.9008 H       1  UNL1        0.1497
      5 C         141.4403  139.3753  160.2668 C.3     1  UNL1        0.1119
      6 C         141.4862  138.5782  158.9968 C.3     1  UNL1        0.0278
      7 C         140.9866  140.8047  160.2390 C.ar    1  UNL1        0.0770
      8 C         139.5217  141.1268  160.2453 C.ar    1  UNL1        0.0195
      9 C         139.0679  142.5563  160.2175 C.ar    1  UNL1        0.0398
     10 C         140.0792  143.6637  160.1836 C.ar    1  UNL1        0.1580
     11 C         141.5442  143.3415  160.1774 C.ar    1  UNL1        0.1353
     12 N         141.9979  141.9120  160.2051 N.ar    1  UNL1       -0.2433
     13 O         139.6255  145.0931  160.1559 O.3     1  UNL1       -0.4650
     14 C         139.9460  146.0041  161.3037 C.3     1  UNL1        0.3082
     15 C         139.8080  145.5112  162.7136 C.3     1  UNL1        0.4380
     16 F         139.6699  145.0183  164.1235 F       1  UNL1       -0.1663
     17 F         138.3407  145.2909  162.4930 F       1  UNL1       -0.1663
     18 F         141.2752  145.7314  162.9343 F       1  UNL1       -0.1663
     19 C         141.2652  137.3030  163.6468 C.3     1  UNL1        0.1113
     20 C         141.7071  139.8328  167.3420 C.ar    1  UNL1        0.0188
     21 C         142.9090  139.1661  166.7414 C.ar    1  UNL1        0.0012
     22 C         142.7618  138.3228  165.5096 C.ar    1  UNL1       -0.0037
     23 C         141.4125  138.1462  164.8785 C.ar    1  UNL1       -0.0131
     24 C         140.2105  138.8130  165.4791 C.ar    1  UNL1       -0.0037
     25 C         140.3578  139.6563  166.7109 C.ar    1  UNL1        0.0012
     26 C         142.5604  138.5745  169.9282 C.3     1  UNL1        0.0537
     27 C         142.2811  140.0470  169.8668 C.ar    1  UNL1        0.0770
     28 N         142.4284  140.8903  171.0985 N.ar    1  UNL1       -0.2450
     29 C         142.1491  142.3628  171.0371 C.ar    1  UNL1        0.1191
     30 C         141.7224  142.9919  169.7440 C.ar    1  UNL1        0.1194
     31 N         141.5751  142.1486  168.5124 N.ar    1  UNL1       -0.2410
     32 C         141.8544  140.6761  168.5738 C.ar    1  UNL1        0.0948
@<TRIPOS>BOND
     1    26    27    1
     2    27    28   ar
     3    28    29   ar
     4    29    30   ar
     5    30    31   ar
     6    31    32   ar
     7    32    20    1
     8    20    21   ar
     9    21    22   ar
    10    22    23   ar
    11    23    19    1
    12    19     1    1
    13     1     2    2
    14     1     3   am
    15     3     5    1
    16     5     6    1
    17     5     7    1
    18     7     8   ar
    19     8     9   ar
    20     9    10   ar
    21    10    13    1
    22    13    14    1
    23    14    15    1
    24    15    16    1
    25    15    17    1
    26    15    18    1
    27    10    11   ar
    28    11    12   ar
    29    23    24   ar
    30    24    25   ar
    31    32    27   ar
    32    25    20   ar
    33    12     7   ar
    34     3     4    1
@<TRIPOS>MOLECULE
*****
 32 34 0 0 0
SMALL
GASTEIGER

@<TRIPOS>ATOM
      1 C         138.7898  138.1628  162.2485 C.2     1  UNL1        0.2271
      2 O         137.4368  138.2649  161.6090 O.2     1  UNL1       -0.2747
      3 N         140.0080  138.6221  161.5035 N.am    1  UNL1       -0.3005
      4 H         140.8960  138.5551  161.9232 H       1  UNL1        0.1497
      5 C         139.8732  139.1836  160.1191 C.3     1  UNL1        0.1119
      6 C         139.0607  140.4232  159.8883 C.3     1  UNL1        0.0278
      7 C         140.5508  138.5054  158.9655 C.ar    1  UNL1        0.0770
      8 C         139.7586  138.1207  157.7512 C.ar    1  UNL1        0.0195
      9 C         140.4362  137.4425  156.5975 C.ar    1  UNL1        0.0398
     10 C         141.9060  137.1490  156.6582 C.ar    1  UNL1        0.1580
     11 C         142.6981  137.5337  157.8725 C.ar    1  UNL1        0.1353
     12 N         142.0205  138.2119  159.0261 N.ar    1  UNL1       -0.2433
     13 O         142.5836  136.4708  155.5045 O.3     1  UNL1       -0.4650
     14 C         143.5312  135.3350  155.7536 C.3     1  UNL1        0.3082
     15 C         143.0151  134.0304  156.2843 C.3     1  UNL1        0.4380
     16 F         142.4991  132.7258  156.8149 F       1  UNL1       -0.1663
     17 F         142.3862  133.7382  154.9543 F       1  UNL1       -0.1663
     18 F         143.6441  134.3226  157.6143 F       1  UNL1       -0.1663
     19 C         138.9247  137.6014  163.6329 C.3     1  UNL1        0.1113
     20 C         141.3082  139.8203  166.7385 C.ar    1  UNL1        0.0188
     21 C         139.8340  140.0648  166.6086 C.ar    1  UNL1        0.0012
     22 C         139.0394  139.3251  165.5734 C.ar    1  UNL1       -0.0037
     23 C         139.7192  138.3410  164.6681 C.ar    1  UNL1       -0.0131
     24 C         141.1934  138.0966  164.7980 C.ar    1  UNL1       -0.0037
     25 C         141.9879  138.8363  165.8333 C.ar    1  UNL1        0.0012
     26 C         142.6665  142.3989  166.0272 C.3     1  UNL1        0.0537
     27 C         142.7818  141.8493  167.4181 C.ar    1  UNL1        0.0770
     28 N         143.5763  142.5889  168.4533 N.ar    1  UNL1       -0.2450
     29 C         143.6916  142.0393  169.8442 C.ar    1  UNL1        0.1191
     30 C         143.0125  140.7500  170.1999 C.ar    1  UNL1        0.1194
     31 N         142.2180  140.0104  169.1647 N.ar    1  UNL1       -0.2410
     32 C         142.1027  140.5600  167.7738 C.ar    1  UNL1        0.0948
@<TRIPOS>BOND
     1    26    27    1
     2    27    28   ar
     3    28    29   ar
     4    29    30   ar
     5    30    31   ar
     6    31    32   ar
     7    32    20    1
     8    20    21   ar
     9    21    22   ar
    10    22    23   ar
    11    23    19    1
    12    19     1    1
    13     1     2    2
    14     1     3   am
    15     3     5    1
    16     5     6    1
    17     5     7    1
    18     7     8   ar
    19     8     9   ar
    20     9    10   ar
    21    10    13    1
    22    13    14    1
    23    14    15    1
    24    15    16    1
    25    15    17    1
    26    15    18    1
    27    10    11   ar
    28    11    12   ar
    29    23    24   ar
    30    24    25   ar
    31    32    27   ar
    32    25    20   ar
    33    12     7   ar
    34     3     4    1
@<TRIPOS>MOLECULE
*****
 32 34 0 0 0
SMALL
GASTEIGER

@<TRIPOS>ATOM
      1 C         143.0466  139.0031  160.6449 C.2     1  UNL1        0.2271
      2 O         141.7525  138.6158  159.9928 O.2     1  UNL1       -0.2747
      3 N         143.7917  140.2156  160.1711 N.am    1  UNL1       -0.3005
      4 H         144.6411  140.4698  160.5991 H       1  UNL1        0.1497
      5 C         143.2428  141.0408  159.0452 C.3     1  UNL1        0.1119
      6 C         143.5949  140.7030  157.6268 C.3     1  UNL1        0.0278
      7 C         142.3418  142.2038  159.3377 C.ar    1  UNL1        0.0770
      8 C         140.8800  141.9764  159.5848 C.ar    1  UNL1        0.0195
      9 C         139.9789  143.1394  159.8773 C.ar    1  UNL1        0.0398
     10 C         140.5398  144.5299  159.9227 C.ar    1  UNL1        0.1580
     11 C         142.0018  144.7573  159.6756 C.ar    1  UNL1        0.1353
     12 N         142.9028  143.5943  159.3831 N.ar    1  UNL1       -0.2433
     13 O         139.6388  145.6929  160.2152 O.3     1  UNL1       -0.4650
     14 C         139.6199  146.3007  161.5865 C.3     1  UNL1        0.3082
     15 C         139.7505  145.4247  162.7970 C.3     1  UNL1        0.4380
     16 F         139.8811  144.5486  164.0075 F       1  UNL1       -0.1663
     17 F         141.1803  145.8511  162.9513 F       1  UNL1       -0.1663
     18 F         138.3207  144.9983  162.6427 F       1  UNL1       -0.1663
     19 C         143.5955  138.1778  161.7708 C.3     1  UNL1        0.1113
     20 C         142.6104  139.2441  166.0302 C.ar    1  UNL1        0.0188
     21 C         141.7220  138.3069  165.2670 C.ar    1  UNL1        0.0012
     22 C         142.0504  137.9515  163.8472 C.ar    1  UNL1       -0.0037
     23 C         143.2671  138.5333  163.1906 C.ar    1  UNL1       -0.0131
     24 C         144.1555  139.4705  163.9538 C.ar    1  UNL1       -0.0037
     25 C         143.8271  139.8259  165.3737 C.ar    1  UNL1        0.0012
     26 C         140.6430  141.4330  166.6121 C.3     1  UNL1        0.0537
     27 C         141.2983  140.6939  167.7410 C.ar    1  UNL1        0.0770
     28 N         140.9700  141.0493  169.1608 N.ar    1  UNL1       -0.2450
     29 C         141.6253  140.3103  170.2897 C.ar    1  UNL1        0.1191
     30 C         142.6090  139.2159  169.9988 C.ar    1  UNL1        0.1194
     31 N         142.9374  138.8606  168.5790 N.ar    1  UNL1       -0.2410
     32 C         142.2820  139.5996  167.4501 C.ar    1  UNL1        0.0948
@<TRIPOS>BOND
     1    26    27    1
     2    27    28   ar
     3    28    29   ar
     4    29    30   ar
     5    30    31   ar
     6    31    32   ar
     7    32    20    1
     8    20    21   ar
     9    21    22   ar
    10    22    23   ar
    11    23    19    1
    12    19     1    1
    13     1     2    2
    14     1     3   am
    15     3     5    1
    16     5     6    1
    17     5     7    1
    18     7     8   ar
    19     8     9   ar
    20     9    10   ar
    21    10    13    1
    22    13    14    1
    23    14    15    1
    24    15    16    1
    25    15    17    1
    26    15    18    1
    27    10    11   ar
    28    11    12   ar
    29    23    24   ar
    30    24    25   ar
    31    32    27   ar
    32    25    20   ar
    33    12     7   ar
    34     3     4    1
@<TRIPOS>MOLECULE
*****
 32 34 0 0 0
SMALL
GASTEIGER

@<TRIPOS>ATOM
      1 C         144.5574  140.6751  162.1558 C.2     1  UNL1        0.2271
      2 O         145.4216  141.8947  162.0308 O.2     1  UNL1       -0.2747
      3 N         143.4529  140.4343  161.1699 N.am    1  UNL1       -0.3005
      4 H         142.8857  139.6338  161.2520 H       1  UNL1        0.1497
      5 C         143.2126  141.4131  160.0589 C.3     1  UNL1        0.1119
      6 C         142.1118  142.4253  160.1762 C.3     1  UNL1        0.0278
      7 C         144.0731  141.3796  158.8308 C.ar    1  UNL1        0.0770
      8 C         144.9773  142.5345  158.5169 C.ar    1  UNL1        0.0195
      9 C         145.8378  142.5011  157.2887 C.ar    1  UNL1        0.0398
     10 C         145.7941  141.3128  156.3744 C.ar    1  UNL1        0.1580
     11 C         144.8898  140.1579  156.6883 C.ar    1  UNL1        0.1353
     12 N         144.0293  140.1913  157.9164 N.ar    1  UNL1       -0.2433
     13 O         146.6545  141.2794  155.1462 O.3     1  UNL1       -0.4650
     14 C         148.0815  141.7364  155.2175 C.3     1  UNL1        0.3082
     15 C         148.6244  142.6657  154.1727 C.3     1  UNL1        0.4380
     16 F         149.1674  143.5950  153.1280 F       1  UNL1       -0.1663
     17 F         147.5750  143.6772  154.5271 F       1  UNL1       -0.1663
     18 F         149.6738  141.6542  153.8184 F       1  UNL1       -0.1663
     19 C         144.7976  139.6963  163.2668 C.3     1  UNL1        0.1113
     20 C         142.5540  140.1010  167.1465 C.ar    1  UNL1        0.0188
     21 C         143.1056  138.7683  166.7346 C.ar    1  UNL1        0.0012
     22 C         143.8535  138.6334  165.4414 C.ar    1  UNL1       -0.0037
     23 C         144.0498  139.8313  164.5600 C.ar    1  UNL1       -0.0131
     24 C         143.4981  141.1639  164.9719 C.ar    1  UNL1       -0.0037
     25 C         142.7502  141.2988  166.2652 C.ar    1  UNL1        0.0012
     26 C         139.5816  139.6994  167.2094 C.3     1  UNL1        0.0537
     27 C         140.3199  140.0351  168.4712 C.ar    1  UNL1        0.0770
     28 N         139.5721  140.1699  169.7645 N.ar    1  UNL1       -0.2450
     29 C         140.3104  140.5056  171.0263 C.ar    1  UNL1        0.1191
     30 C         141.7966  140.7064  170.9949 C.ar    1  UNL1        0.1194
     31 N         142.5444  140.5716  169.7016 N.ar    1  UNL1       -0.2410
     32 C         141.8061  140.2359  168.4398 C.ar    1  UNL1        0.0948
@<TRIPOS>BOND
     1    26    27    1
     2    27    28   ar
     3    28    29   ar
     4    29    30   ar
     5    30    31   ar
     6    31    32   ar
     7    32    20    1
     8    20    21   ar
     9    21    22   ar
    10    22    23   ar
    11    23    19    1
    12    19     1    1
    13     1     2    2
    14     1     3   am
    15     3     5    1
    16     5     6    1
    17     5     7    1
    18     7     8   ar
    19     8     9   ar
    20     9    10   ar
    21    10    13    1
    22    13    14    1
    23    14    15    1
    24    15    16    1
    25    15    17    1
    26    15    18    1
    27    10    11   ar
    28    11    12   ar
    29    23    24   ar
    30    24    25   ar
    31    32    27   ar
    32    25    20   ar
    33    12     7   ar
    34     3     4    1
