@<TRIPOS>MOLECULE
*****
 34 38 0 0 0
SMALL
GASTEIGER

@<TRIPOS>ATOM
      1 C         140.9202  144.9960  161.9258 C.ar    1  UNL1        0.0505
      2 C         139.6896  145.3010  162.7275 C.ar    1  UNL1        0.0178
      3 C         139.5491  144.7617  164.1201 C.ar    1  UNL1        0.0379
      4 C         140.6390  143.9174  164.7110 C.ar    1  UNL1        0.1361
      5 C         141.8696  143.6124  163.9093 C.ar    1  UNL1        0.0369
      6 C         142.0102  144.1518  162.5167 C.ar    1  UNL1        0.0153
      7 C         142.9595  142.7682  164.5002 C.3     1  UNL1        0.1581
      8 C         144.1263  141.9426  164.9555 C.3     1  UNL1        0.2351
      9 O         145.1273  141.8994  163.8391 O.2     1  UNL1       -0.4478
     10 C         144.5792  142.6983  162.6939 C.2     1  UNL1        0.2770
     11 N         145.2525  142.9211  161.3723 N.pl3   1  UNL1       -0.3133
     12 N         143.2394  143.2352  163.1025 N.2     1  UNL1       -0.2202
     13 C         142.8190  142.2288  165.8928 C.3     1  UNL1        0.1141
     14 C         142.5149  142.4644  165.7279 C.3     1  UNL1        0.1501
     15 O         142.8345  142.2168  165.9012 O.3     1  UNL1       -0.3532
     16 C         142.5149  142.4644  165.7279 C.3     1  UNL1        0.1501
     17 C         141.5884  142.5338  166.6945 C.3     1  UNL1        0.1398
     18 C         140.6196  142.5471  167.8395 C.3     1  UNL1        0.0438
     19 C         142.3419  141.6941  167.6831 C.3     1  UNL1        0.0438
     20 O         140.4984  143.3781  166.1036 O.3     1  UNL1       -0.4826
     21 H         146.1367  142.5250  161.1973 H       1  UNL1        0.1466
     22 H         144.8103  143.4634  160.6798 H       1  UNL1        0.1466
     23 C         140.2678  144.9324  159.4117 C.2     1  UNL1        0.2669
     24 O         139.3343  143.7900  159.6829 O.2     1  UNL1       -0.2682
     25 N         141.0608  145.5354  160.5332 N.am    1  UNL1       -0.2792
     26 H         141.6735  146.2851  160.3552 H       1  UNL1        0.1552
     27 C         142.4320  143.8939  157.6123 C.3     1  UNL1        0.0328
     28 C         141.4905  144.9525  157.1194 C.ar    1  UNL1        0.0012
     29 C         141.6311  145.4919  155.7269 C.ar    1  UNL1        0.0103
     30 C         140.6896  146.5505  155.2340 C.ar    1  UNL1        0.0765
     31 CL        140.8302  147.0899  153.8414 Cl      1  UNL1       -0.0806
     32 C         139.6075  147.0698  156.1337 C.ar    1  UNL1        0.1103
     33 N         139.4670  146.5304  157.5262 N.ar    1  UNL1       -0.2387
     34 C         140.4085  145.4718  158.0191 C.ar    1  UNL1        0.1308
@<TRIPOS>BOND
     1    27    28    1
     2    28    29   ar
     3    29    30   ar
     4    30    31    1
     5    30    32   ar
     6    32    33   ar
     7    33    34   ar
     8    34    23    1
     9    23    24    2
    10    23    25   am
    11    25     1    1
    12     1     2   ar
    13     2     3   ar
    14     3     4   ar
    15     4     5   ar
    16     5     6   ar
    17     5     7    1
    18     7     8    1
    19     8     9    1
    20     9    10    1
    21    10    11    1
    22    10    12    2
    23     7    13    1
    24    13    14    1
    25    14    15    1
    26    15    16    1
    27    13    17    1
    28    17    18    1
    29    17    19    1
    30    17    20    1
    31    34    28   ar
    32     6     1   ar
    33    12     7    1
    34    16    13    1
    35    20     4    1
    36    25    26    1
    37    11    21    1
    38    11    22    1
@<TRIPOS>MOLECULE
*****
 34 38 0 0 0
SMALL
GASTEIGER

@<TRIPOS>ATOM
      1 C         140.8751  142.5903  164.4969 C.ar    1  UNL1        0.0505
      2 C         140.1463  143.4017  165.5267 C.ar    1  UNL1        0.0178
      3 C         140.2176  143.0151  166.9742 C.ar    1  UNL1        0.0379
      4 C         141.0178  141.8171  167.3921 C.ar    1  UNL1        0.1361
      5 C         141.7467  141.0057  166.3623 C.ar    1  UNL1        0.0369
      6 C         141.6753  141.3923  164.9147 C.ar    1  UNL1        0.0153
      7 C         142.5468  139.8078  166.7802 C.3     1  UNL1        0.1581
      8 C         143.3823  138.5907  167.0462 C.3     1  UNL1        0.2351
      9 O         143.9201  138.1017  165.7339 O.2     1  UNL1       -0.4478
     10 C         143.4169  139.0165  164.6570 C.2     1  UNL1        0.2770
     11 N         143.7108  138.8978  163.1909 N.pl3   1  UNL1       -0.3133
     12 N         142.5682  140.0709  165.3035 N.2     1  UNL1       -0.2202
     13 C         142.6182  139.4212  168.2277 C.3     1  UNL1        0.1141
     14 C         142.3950  139.7554  168.1111 C.3     1  UNL1        0.1501
     15 O         142.6296  139.4041  168.2337 O.3     1  UNL1       -0.3532
     16 C         142.3950  139.7554  168.1111 C.3     1  UNL1        0.1501
     17 C         141.8894  140.2326  169.2574 C.3     1  UNL1        0.1398
     18 C         141.3766  140.6821  170.5934 C.3     1  UNL1        0.0438
     19 C         142.5115  139.1907  170.1393 C.3     1  UNL1        0.0438
     20 O         141.0892  141.4306  168.8396 O.3     1  UNL1       -0.4826
     21 H         144.2821  138.1671  162.8610 H       1  UNL1        0.1466
     22 H         143.3323  139.5506  162.5586 H       1  UNL1        0.1466
     23 C         141.7197  144.0350  162.5096 C.2     1  UNL1        0.2669
     24 O         142.7070  144.7066  163.4174 O.2     1  UNL1       -0.2682
     25 N         140.8038  142.9768  163.0493 N.am    1  UNL1       -0.2792
     26 H         140.1558  142.5360  162.4535 H       1  UNL1        0.1552
     27 C         139.7342  146.0930  161.6027 C.3     1  UNL1        0.0328
     28 C         140.6556  145.4505  160.6085 C.ar    1  UNL1        0.0012
     29 C         140.5843  145.8370  159.1610 C.ar    1  UNL1        0.0103
     30 C         141.5056  145.1946  158.1669 C.ar    1  UNL1        0.0765
     31 CL        141.4342  145.5811  156.7192 Cl      1  UNL1       -0.0806
     32 C         142.4984  144.1656  158.6203 C.ar    1  UNL1        0.1103
     33 N         142.5697  143.7791  160.0678 N.ar    1  UNL1       -0.2387
     34 C         141.6483  144.4216  161.0620 C.ar    1  UNL1        0.1308
@<TRIPOS>BOND
     1    27    28    1
     2    28    29   ar
     3    29    30   ar
     4    30    31    1
     5    30    32   ar
     6    32    33   ar
     7    33    34   ar
     8    34    23    1
     9    23    24    2
    10    23    25   am
    11    25     1    1
    12     1     2   ar
    13     2     3   ar
    14     3     4   ar
    15     4     5   ar
    16     5     6   ar
    17     5     7    1
    18     7     8    1
    19     8     9    1
    20     9    10    1
    21    10    11    1
    22    10    12    2
    23     7    13    1
    24    13    14    1
    25    14    15    1
    26    15    16    1
    27    13    17    1
    28    17    18    1
    29    17    19    1
    30    17    20    1
    31    34    28   ar
    32     6     1   ar
    33    12     7    1
    34    16    13    1
    35    20     4    1
    36    25    26    1
    37    11    21    1
    38    11    22    1
@<TRIPOS>MOLECULE
*****
 34 38 0 0 0
SMALL
GASTEIGER

@<TRIPOS>ATOM
      1 C         142.8514  141.1103  164.5831 C.ar    1  UNL1        0.0505
      2 C         143.5326  142.0101  165.5712 C.ar    1  UNL1        0.0178
      3 C         142.9712  142.1676  166.9532 C.ar    1  UNL1        0.0379
      4 C         141.7287  141.4254  167.3472 C.ar    1  UNL1        0.1361
      5 C         141.0475  140.5256  166.3591 C.ar    1  UNL1        0.0369
      6 C         141.6088  140.3681  164.9770 C.ar    1  UNL1        0.0153
      7 C         139.8049  139.7834  166.7530 C.3     1  UNL1        0.1581
      8 C         138.5619  138.9814  167.0018 C.3     1  UNL1        0.2351
      9 O         138.2359  138.2300  165.7451 O.2     1  UNL1       -0.4478
     10 C         139.2774  138.5675  164.7198 C.2     1  UNL1        0.2770
     11 N         139.3385  138.0380  163.3177 N.pl3   1  UNL1       -0.3133
     12 N         140.2471  139.5276  165.3426 N.2     1  UNL1       -0.2202
     13 C         139.2436  139.9410  168.1351 C.3     1  UNL1        0.1141
     14 C         139.5902  140.1481  168.0251 C.3     1  UNL1        0.1501
     15 O         139.2258  139.9304  168.1407 O.3     1  UNL1       -0.3532
     16 C         139.5902  140.1481  168.0251 C.3     1  UNL1        0.1501
     17 C         139.9248  140.8408  169.1231 C.3     1  UNL1        0.1398
     18 C         140.2086  141.5708  170.4023 C.3     1  UNL1        0.0438
     19 C         138.7808  140.3521  169.9614 C.3     1  UNL1        0.0438
     20 O         141.1673  141.5830  168.7292 O.3     1  UNL1       -0.4826
     21 H         138.6520  137.4084  162.9990 H       1  UNL1        0.1466
     22 H         140.0650  138.3200  162.7163 H       1  UNL1        0.1466
     23 C         142.7926  141.6896  162.0511 C.2     1  UNL1        0.2669
     24 O         141.6110  142.5841  162.2832 O.2     1  UNL1       -0.2682
     25 N         143.4127  140.9527  163.2011 N.am    1  UNL1       -0.2792
     26 H         144.1882  140.3657  163.0487 H       1  UNL1        0.1552
     27 C         142.0610  139.2948  160.3989 C.3     1  UNL1        0.0328
     28 C         142.9882  140.3346  159.8430 C.ar    1  UNL1        0.0012
     29 C         143.5496  140.1771  158.4610 C.ar    1  UNL1        0.0103
     30 C         144.4768  141.2169  157.9051 C.ar    1  UNL1        0.0765
     31 CL        145.0383  141.0593  156.5230 Cl      1  UNL1       -0.0806
     32 C         144.8426  142.4143  158.7311 C.ar    1  UNL1        0.1103
     33 N         144.2812  142.5718  160.1131 N.ar    1  UNL1       -0.2387
     34 C         143.3540  141.5320  160.6690 C.ar    1  UNL1        0.1308
@<TRIPOS>BOND
     1    27    28    1
     2    28    29   ar
     3    29    30   ar
     4    30    31    1
     5    30    32   ar
     6    32    33   ar
     7    33    34   ar
     8    34    23    1
     9    23    24    2
    10    23    25   am
    11    25     1    1
    12     1     2   ar
    13     2     3   ar
    14     3     4   ar
    15     4     5   ar
    16     5     6   ar
    17     5     7    1
    18     7     8    1
    19     8     9    1
    20     9    10    1
    21    10    11    1
    22    10    12    2
    23     7    13    1
    24    13    14    1
    25    14    15    1
    26    15    16    1
    27    13    17    1
    28    17    18    1
    29    17    19    1
    30    17    20    1
    31    34    28   ar
    32     6     1   ar
    33    12     7    1
    34    16    13    1
    35    20     4    1
    36    25    26    1
    37    11    21    1
    38    11    22    1
@<TRIPOS>MOLECULE
*****
 34 38 0 0 0
SMALL
GASTEIGER

@<TRIPOS>ATOM
      1 C         141.9788  142.2628  164.0909 C.ar    1  UNL1        0.0505
      2 C         143.2126  142.7105  164.8172 C.ar    1  UNL1        0.0178
      3 C         143.3899  142.3791  166.2693 C.ar    1  UNL1        0.0379
      4 C         142.3333  141.6002  166.9953 C.ar    1  UNL1        0.1361
      5 C         141.0996  141.1526  166.2691 C.ar    1  UNL1        0.0369
      6 C         140.9222  141.4839  164.8169 C.ar    1  UNL1        0.0153
      7 C         140.0431  140.3736  166.9950 C.3     1  UNL1        0.1581
      8 C         138.9072  139.5919  167.5856 C.3     1  UNL1        0.2351
      9 O         137.8905  139.3642  166.5063 O.2     1  UNL1       -0.4478
     10 C         138.3981  140.0052  165.2487 C.2     1  UNL1        0.2770
     11 N         137.6984  140.0199  163.9221 N.pl3   1  UNL1       -0.3133
     12 N         139.7285  140.6291  165.5508 N.2     1  UNL1       -0.2202
     13 C         140.2203  140.0423  168.4472 C.3     1  UNL1        0.1141
     14 C         140.5151  140.2596  168.2446 C.3     1  UNL1        0.1501
     15 O         140.2052  140.0312  168.4575 O.3     1  UNL1       -0.3532
     16 C         140.5151  140.2596  168.2446 C.3     1  UNL1        0.1501
     17 C         141.4541  140.4899  169.1734 C.3     1  UNL1        0.1398
     18 C         142.4398  140.6913  170.2859 C.3     1  UNL1        0.0438
     19 C         140.7399  139.7809  170.2858 C.3     1  UNL1        0.0438
     20 O         142.5106  141.2689  168.4474 O.3     1  UNL1       -0.4826
     21 H         136.8231  139.5804  163.8224 H       1  UNL1        0.1466
     22 H         138.1144  140.4690  163.1511 H       1  UNL1        0.1466
     23 C         140.9241  143.7411  162.2328 C.2     1  UNL1        0.2669
     24 O         140.2240  144.5567  163.2791 O.2     1  UNL1       -0.2682
     25 N         141.8015  142.5942  162.6388 N.am    1  UNL1       -0.2792
     26 H         142.2610  142.0589  161.9521 H       1  UNL1        0.1552
     27 C         138.7716  142.3908  160.6380 C.3     1  UNL1        0.0328
     28 C         139.6706  143.3973  159.9833 C.ar    1  UNL1        0.0012
     29 C         139.4934  143.7286  158.5311 C.ar    1  UNL1        0.0103
     30 C         140.3925  144.7351  157.8763 C.ar    1  UNL1        0.0765
     31 CL        140.2152  145.0664  156.4241 Cl      1  UNL1       -0.0806
     32 C         141.4687  145.4102  158.6737 C.ar    1  UNL1        0.1103
     33 N         141.6459  145.0789  160.1258 N.ar    1  UNL1       -0.2387
     34 C         140.7469  144.0724  160.7806 C.ar    1  UNL1        0.1308
@<TRIPOS>BOND
     1    27    28    1
     2    28    29   ar
     3    29    30   ar
     4    30    31    1
     5    30    32   ar
     6    32    33   ar
     7    33    34   ar
     8    34    23    1
     9    23    24    2
    10    23    25   am
    11    25     1    1
    12     1     2   ar
    13     2     3   ar
    14     3     4   ar
    15     4     5   ar
    16     5     6   ar
    17     5     7    1
    18     7     8    1
    19     8     9    1
    20     9    10    1
    21    10    11    1
    22    10    12    2
    23     7    13    1
    24    13    14    1
    25    14    15    1
    26    15    16    1
    27    13    17    1
    28    17    18    1
    29    17    19    1
    30    17    20    1
    31    34    28   ar
    32     6     1   ar
    33    12     7    1
    34    16    13    1
    35    20     4    1
    36    25    26    1
    37    11    21    1
    38    11    22    1
@<TRIPOS>MOLECULE
*****
 34 38 0 0 0
SMALL
GASTEIGER

@<TRIPOS>ATOM
      1 C         138.3839  141.9620  160.9861 C.ar    1  UNL1        0.0505
      2 C         137.8645  140.5741  160.7534 C.ar    1  UNL1        0.0178
      3 C         137.8082  139.5944  161.8879 C.ar    1  UNL1        0.0379
      4 C         138.2713  140.0026  163.2550 C.ar    1  UNL1        0.1361
      5 C         138.7906  141.3904  163.4876 C.ar    1  UNL1        0.0369
      6 C         138.8470  142.3702  162.3532 C.ar    1  UNL1        0.0153
      7 C         139.2537  141.7985  164.8548 C.3     1  UNL1        0.1581
      8 C         139.7490  142.3473  166.1600 C.3     1  UNL1        0.2351
      9 O         140.1704  143.7693  165.9349 O.2     1  UNL1       -0.4478
     10 C         139.9356  144.0993  164.4907 C.2     1  UNL1        0.2770
     11 N         140.2177  145.4160  163.8300 N.pl3   1  UNL1       -0.3133
     12 N         139.3690  142.8813  163.8230 N.2     1  UNL1       -0.2202
     13 C         139.1974  140.8188  165.9892 C.3     1  UNL1        0.1141
     14 C         139.0682  140.7050  165.6078 C.3     1  UNL1        0.1501
     15 O         139.2040  140.8247  166.0087 O.3     1  UNL1       -0.3532
     16 C         139.0682  140.7050  165.6078 C.3     1  UNL1        0.1501
     17 C         138.6781  139.4310  165.7565 C.3     1  UNL1        0.1398
     18 C         138.2703  138.0140  166.0319 C.3     1  UNL1        0.0438
     19 C         138.9995  139.3470  167.2193 C.3     1  UNL1        0.0438
     20 O         138.2150  139.0229  164.3894 O.3     1  UNL1       -0.4826
     21 H         140.5918  146.1600  164.3550 H       1  UNL1        0.1466
     22 H         140.0288  145.5362  162.8713 H       1  UNL1        0.1466
     23 C         139.6186  142.9477  158.9236 C.2     1  UNL1        0.2669
     24 O         140.7408  141.9740  159.1300 O.2     1  UNL1       -0.2682
     25 N         138.4402  142.9417  159.8516 N.am    1  UNL1       -0.2792
     26 H         137.7036  143.5808  159.7161 H       1  UNL1        0.1552
     27 C         141.1933  145.4851  159.2096 C.3     1  UNL1        0.0328
     28 C         140.4622  145.1961  157.9321 C.ar    1  UNL1        0.0012
     29 C         140.5184  146.1758  156.7977 C.ar    1  UNL1        0.0103
     30 C         139.7873  145.8868  155.5202 C.ar    1  UNL1        0.0765
     31 CL        139.8435  146.8665  154.3857 Cl      1  UNL1       -0.0806
     32 C         138.9999  144.6181  155.3772 C.ar    1  UNL1        0.1103
     33 N         138.9437  143.6384  156.5116 N.ar    1  UNL1       -0.2387
     34 C         139.6749  143.9275  157.7891 C.ar    1  UNL1        0.1308
@<TRIPOS>BOND
     1    27    28    1
     2    28    29   ar
     3    29    30   ar
     4    30    31    1
     5    30    32   ar
     6    32    33   ar
     7    33    34   ar
     8    34    23    1
     9    23    24    2
    10    23    25   am
    11    25     1    1
    12     1     2   ar
    13     2     3   ar
    14     3     4   ar
    15     4     5   ar
    16     5     6   ar
    17     5     7    1
    18     7     8    1
    19     8     9    1
    20     9    10    1
    21    10    11    1
    22    10    12    2
    23     7    13    1
    24    13    14    1
    25    14    15    1
    26    15    16    1
    27    13    17    1
    28    17    18    1
    29    17    19    1
    30    17    20    1
    31    34    28   ar
    32     6     1   ar
    33    12     7    1
    34    16    13    1
    35    20     4    1
    36    25    26    1
    37    11    21    1
    38    11    22    1
@<TRIPOS>MOLECULE
*****
 34 38 0 0 0
SMALL
GASTEIGER

@<TRIPOS>ATOM
      1 C         142.3845  144.4405  162.1131 C.ar    1  UNL1        0.0505
      2 C         143.7469  144.4069  162.7400 C.ar    1  UNL1        0.0178
      3 C         143.9276  143.8257  164.1109 C.ar    1  UNL1        0.0379
      4 C         142.7460  143.2779  164.8550 C.ar    1  UNL1        0.1361
      5 C         141.3836  143.3114  164.2282 C.ar    1  UNL1        0.0369
      6 C         141.2029  143.8927  162.8573 C.ar    1  UNL1        0.0153
      7 C         140.2020  142.7637  164.9724 C.3     1  UNL1        0.1581
      8 C         138.9337  142.2560  165.5918 C.3     1  UNL1        0.2351
      9 O         137.8165  142.4893  164.6183 O.2     1  UNL1       -0.4478
     10 C         138.3944  143.1412  163.3972 C.2     1  UNL1        0.2770
     11 N         137.6320  143.5514  162.1724 N.pl3   1  UNL1       -0.3133
     12 N         139.8687  143.3107  163.6159 N.2     1  UNL1       -0.2202
     13 C         140.3827  142.1824  166.3433 C.3     1  UNL1        0.1141
     14 C         140.7123  142.3352  166.1357 C.3     1  UNL1        0.1501
     15 O         140.3658  142.1746  166.3539 O.3     1  UNL1       -0.3532
     16 C         140.7123  142.3352  166.1357 C.3     1  UNL1        0.1501
     17 C         141.7450  142.1489  166.9701 C.3     1  UNL1        0.1398
     18 C         142.8274  141.8945  167.9768 C.3     1  UNL1        0.0438
     19 C         140.9393  141.5128  168.0639 C.3     1  UNL1        0.0438
     20 O         142.9266  142.6967  166.2260 O.3     1  UNL1       -0.4826
     21 H         136.6609  143.3975  162.1225 H       1  UNL1        0.1466
     22 H         138.1027  143.9746  161.4183 H       1  UNL1        0.1466
     23 C         141.4935  144.2343  159.6814 C.2     1  UNL1        0.2669
     24 O         140.9639  142.8656  159.9914 O.2     1  UNL1       -0.2682
     25 N         142.2039  145.0217  160.7422 N.am    1  UNL1       -0.2792
     26 H         142.5515  145.9200  160.5387 H       1  UNL1        0.1552
     27 C         143.2951  143.3792  157.4401 C.3     1  UNL1        0.0328
     28 C         142.2136  144.3881  157.1898 C.ar    1  UNL1        0.0012
     29 C         142.0329  144.9694  155.8189 C.ar    1  UNL1        0.0103
     30 C         140.9515  145.9783  155.5686 C.ar    1  UNL1        0.0765
     31 CL        140.7708  146.5596  154.1977 Cl      1  UNL1       -0.0806
     32 C         140.0507  146.4058  156.6892 C.ar    1  UNL1        0.1103
     33 N         140.2314  145.8245  158.0601 N.ar    1  UNL1       -0.2387
     34 C         141.3129  144.8156  158.3104 C.ar    1  UNL1        0.1308
@<TRIPOS>BOND
     1    27    28    1
     2    28    29   ar
     3    29    30   ar
     4    30    31    1
     5    30    32   ar
     6    32    33   ar
     7    33    34   ar
     8    34    23    1
     9    23    24    2
    10    23    25   am
    11    25     1    1
    12     1     2   ar
    13     2     3   ar
    14     3     4   ar
    15     4     5   ar
    16     5     6   ar
    17     5     7    1
    18     7     8    1
    19     8     9    1
    20     9    10    1
    21    10    11    1
    22    10    12    2
    23     7    13    1
    24    13    14    1
    25    14    15    1
    26    15    16    1
    27    13    17    1
    28    17    18    1
    29    17    19    1
    30    17    20    1
    31    34    28   ar
    32     6     1   ar
    33    12     7    1
    34    16    13    1
    35    20     4    1
    36    25    26    1
    37    11    21    1
    38    11    22    1
@<TRIPOS>MOLECULE
*****
 34 38 0 0 0
SMALL
GASTEIGER

@<TRIPOS>ATOM
      1 C         139.0781  143.2989  162.7937 C.ar    1  UNL1        0.0505
      2 C         139.5191  144.4407  163.6609 C.ar    1  UNL1        0.0178
      3 C         139.8599  144.2001  165.1017 C.ar    1  UNL1        0.0379
      4 C         139.7597  142.8178  165.6754 C.ar    1  UNL1        0.1361
      5 C         139.3187  141.6761  164.8083 C.ar    1  UNL1        0.0369
      6 C         138.9779  141.9166  163.3674 C.ar    1  UNL1        0.0153
      7 C         139.2185  140.2937  165.3820 C.3     1  UNL1        0.1581
      8 C         139.0717  138.8646  165.8132 C.3     1  UNL1        0.2351
      9 O         138.6094  138.0682  164.6291 O.2     1  UNL1       -0.4478
     10 C         138.4704  139.0051  163.4660 C.2     1  UNL1        0.2770
     11 N         138.0320  138.6322  162.0809 N.pl3   1  UNL1       -0.3133
     12 N         138.8469  140.3806  163.9313 N.2     1  UNL1       -0.2202
     13 C         139.5593  140.0531  166.8228 C.3     1  UNL1        0.1141
     14 C         139.5873  140.4388  166.6627 C.3     1  UNL1        0.1501
     15 O         139.5579  140.0334  166.8309 O.3     1  UNL1       -0.3532
     16 C         139.5873  140.4388  166.6627 C.3     1  UNL1        0.1501
     17 C         140.0003  141.1949  167.6899 C.3     1  UNL1        0.1398
     18 C         140.4622  141.9473  168.9025 C.3     1  UNL1        0.0438
     19 C         140.0606  140.0738  168.6848 C.3     1  UNL1        0.0438
     20 O         140.1005  142.5772  167.1162 O.3     1  UNL1       -0.4826
     21 H         137.8047  137.6975  161.8715 H       1  UNL1        0.1466
     22 H         137.9716  139.3221  161.3812 H       1  UNL1        0.1466
     23 C         139.6729  143.0804  160.2741 C.2     1  UNL1        0.2669
     24 O         140.9493  142.3807  160.6361 O.2     1  UNL1       -0.2682
     25 N         138.7373  143.5395  161.3529 N.am    1  UNL1       -0.2792
     26 H         137.8995  143.9988  161.1153 H       1  UNL1        0.1552
     27 C         140.9642  145.3418  158.7846 C.3     1  UNL1        0.0328
     28 C         139.9777  144.4517  158.0885 C.ar    1  UNL1        0.0012
     29 C         139.6368  144.6923  156.6478 C.ar    1  UNL1        0.0103
     30 C         138.6503  143.8022  155.9517 C.ar    1  UNL1        0.0765
     31 CL        138.3095  144.0428  154.5108 Cl      1  UNL1       -0.0806
     32 C         138.0047  142.6715  156.6964 C.ar    1  UNL1        0.1103
     33 N         138.3455  142.4309  158.1372 N.ar    1  UNL1       -0.2387
     34 C         139.3321  143.3210  158.8333 C.ar    1  UNL1        0.1308
@<TRIPOS>BOND
     1    27    28    1
     2    28    29   ar
     3    29    30   ar
     4    30    31    1
     5    30    32   ar
     6    32    33   ar
     7    33    34   ar
     8    34    23    1
     9    23    24    2
    10    23    25   am
    11    25     1    1
    12     1     2   ar
    13     2     3   ar
    14     3     4   ar
    15     4     5   ar
    16     5     6   ar
    17     5     7    1
    18     7     8    1
    19     8     9    1
    20     9    10    1
    21    10    11    1
    22    10    12    2
    23     7    13    1
    24    13    14    1
    25    14    15    1
    26    15    16    1
    27    13    17    1
    28    17    18    1
    29    17    19    1
    30    17    20    1
    31    34    28   ar
    32     6     1   ar
    33    12     7    1
    34    16    13    1
    35    20     4    1
    36    25    26    1
    37    11    21    1
    38    11    22    1
@<TRIPOS>MOLECULE
*****
 34 38 0 0 0
SMALL
GASTEIGER

@<TRIPOS>ATOM
      1 C         138.6452  141.7278  163.3371 C.ar    1  UNL1        0.0505
      2 C         137.8976  140.5484  162.7891 C.ar    1  UNL1        0.0178
      3 C         137.7206  140.3951  161.3075 C.ar    1  UNL1        0.0379
      4 C         138.2911  141.4212  160.3738 C.ar    1  UNL1        0.1361
      5 C         139.0387  142.6005  160.9218 C.ar    1  UNL1        0.0369
      6 C         139.2157  142.7538  162.4035 C.ar    1  UNL1        0.0153
      7 C         139.6093  143.6266  159.9882 C.3     1  UNL1        0.1581
      8 C         140.2325  144.7275  159.1821 C.3     1  UNL1        0.2351
      9 O         140.8733  145.6935  160.1342 O.2     1  UNL1       -0.4478
     10 C         140.6461  145.1896  161.5287 C.2     1  UNL1        0.2770
     11 N         141.1173  145.8475  162.7916 N.pl3   1  UNL1       -0.3133
     12 N         139.8649  143.9122  161.4384 N.2     1  UNL1       -0.2202
     13 C         139.4322  143.4733  158.5066 C.3     1  UNL1        0.1141
     14 C         139.2731  143.1871  158.7671 C.3     1  UNL1        0.1501
     15 O         139.4404  143.4880  158.4933 O.3     1  UNL1       -0.3532
     16 C         139.2731  143.1871  158.7671 C.3     1  UNL1        0.1501
     17 C         138.6847  142.2940  157.9586 C.3     1  UNL1        0.1398
     18 C         138.0599  141.3582  156.9667 C.3     1  UNL1        0.0438
     19 C         139.0383  142.9951  156.6804 C.3     1  UNL1        0.0438
     20 O         138.1141  141.2680  158.8923 O.3     1  UNL1       -0.4826
     21 H         141.6262  146.6891  162.7479 H       1  UNL1        0.1466
     22 H         140.9177  145.4376  163.6642 H       1  UNL1        0.1466
     23 C         139.9972  141.2479  165.5031 C.2     1  UNL1        0.2669
     24 O         140.9952  140.4614  164.7060 O.2     1  UNL1       -0.2682
     25 N         138.8222  141.8810  164.8187 N.am    1  UNL1       -0.2792
     26 H         138.1672  142.3972  165.3419 H       1  UNL1        0.1552
     27 C         138.7469  139.2658  167.3762 C.3     1  UNL1        0.0328
     28 C         139.5490  140.4101  167.9213 C.ar    1  UNL1        0.0012
     29 C         139.7260  140.5635  169.4028 C.ar    1  UNL1        0.0103
     30 C         140.5281  141.7078  169.9479 C.ar    1  UNL1        0.0765
     31 CL        140.7051  141.8611  171.4296 Cl      1  UNL1       -0.0806
     32 C         141.1533  142.6988  169.0114 C.ar    1  UNL1        0.1103
     33 N         140.9763  142.5455  167.5299 N.ar    1  UNL1       -0.2387
     34 C         140.1742  141.4012  166.9848 C.ar    1  UNL1        0.1308
@<TRIPOS>BOND
     1    27    28    1
     2    28    29   ar
     3    29    30   ar
     4    30    31    1
     5    30    32   ar
     6    32    33   ar
     7    33    34   ar
     8    34    23    1
     9    23    24    2
    10    23    25   am
    11    25     1    1
    12     1     2   ar
    13     2     3   ar
    14     3     4   ar
    15     4     5   ar
    16     5     6   ar
    17     5     7    1
    18     7     8    1
    19     8     9    1
    20     9    10    1
    21    10    11    1
    22    10    12    2
    23     7    13    1
    24    13    14    1
    25    14    15    1
    26    15    16    1
    27    13    17    1
    28    17    18    1
    29    17    19    1
    30    17    20    1
    31    34    28   ar
    32     6     1   ar
    33    12     7    1
    34    16    13    1
    35    20     4    1
    36    25    26    1
    37    11    21    1
    38    11    22    1
@<TRIPOS>MOLECULE
*****
 34 38 0 0 0
SMALL
GASTEIGER

@<TRIPOS>ATOM
      1 C         141.9973  141.4335  164.3261 C.ar    1  UNL1        0.0505
      2 C         143.2108  142.2884  164.5426 C.ar    1  UNL1        0.0178
      3 C         143.6184  142.6734  165.9338 C.ar    1  UNL1        0.0379
      4 C         142.8127  142.2037  167.1086 C.ar    1  UNL1        0.1361
      5 C         141.5993  141.3488  166.8922 C.ar    1  UNL1        0.0369
      6 C         141.1916  140.9637  165.5009 C.ar    1  UNL1        0.0153
      7 C         140.7936  140.8791  168.0670 C.3     1  UNL1        0.1581
      8 C         139.8945  140.3371  169.1383 C.3     1  UNL1        0.2351
      9 O         138.8114  139.5391  168.4747 O.2     1  UNL1       -0.4478
     10 C         139.0412  139.5880  166.9932 C.2     1  UNL1        0.2770
     11 N         138.1946  138.9251  165.9474 N.pl3   1  UNL1       -0.3133
     12 N         140.2663  140.4161  166.7412 N.2     1  UNL1       -0.2202
     13 C         141.2013  141.2642  169.4582 C.3     1  UNL1        0.1141
     14 C         141.4261  141.3952  169.1304 C.3     1  UNL1        0.1501
     15 O         141.1898  141.2575  169.4749 O.3     1  UNL1       -0.3532
     16 C         141.4261  141.3952  169.1304 C.3     1  UNL1        0.1501
     17 C         142.4147  142.1190  169.6746 C.3     1  UNL1        0.1398
     18 C         143.4763  142.9056  170.3847 C.3     1  UNL1        0.0438
     19 C         141.9777  141.9224  171.0961 C.3     1  UNL1        0.0438
     20 O         143.2204  142.5888  168.4998 O.3     1  UNL1       -0.4826
     21 H         137.4057  138.3995  166.2131 H       1  UNL1        0.1466
     22 H         138.4279  139.0157  164.9952 H       1  UNL1        0.1466
     23 C         141.8711  139.6655  162.4266 C.2     1  UNL1        0.2669
     24 O         142.5602  138.6677  163.3094 O.2     1  UNL1       -0.2682
     25 N         141.5896  141.0484  162.9349 N.am    1  UNL1       -0.2792
     26 H         141.1373  141.7033  162.3555 H       1  UNL1        0.1552
     27 C         139.1746  138.4450  161.9373 C.3     1  UNL1        0.0328
     28 C         140.1151  138.6702  160.7907 C.ar    1  UNL1        0.0012
     29 C         139.7075  138.2852  159.3995 C.ar    1  UNL1        0.0103
     30 C         140.6481  138.5104  158.2529 C.ar    1  UNL1        0.0765
     31 CL        140.2403  138.1253  156.8616 Cl      1  UNL1       -0.0806
     32 C         141.9963  139.1206  158.4975 C.ar    1  UNL1        0.1103
     33 N         142.4039  139.5056  159.8888 N.ar    1  UNL1       -0.2387
     34 C         141.4634  139.2804  161.0353 C.ar    1  UNL1        0.1308
@<TRIPOS>BOND
     1    27    28    1
     2    28    29   ar
     3    29    30   ar
     4    30    31    1
     5    30    32   ar
     6    32    33   ar
     7    33    34   ar
     8    34    23    1
     9    23    24    2
    10    23    25   am
    11    25     1    1
    12     1     2   ar
    13     2     3   ar
    14     3     4   ar
    15     4     5   ar
    16     5     6   ar
    17     5     7    1
    18     7     8    1
    19     8     9    1
    20     9    10    1
    21    10    11    1
    22    10    12    2
    23     7    13    1
    24    13    14    1
    25    14    15    1
    26    15    16    1
    27    13    17    1
    28    17    18    1
    29    17    19    1
    30    17    20    1
    31    34    28   ar
    32     6     1   ar
    33    12     7    1
    34    16    13    1
    35    20     4    1
    36    25    26    1
    37    11    21    1
    38    11    22    1
