@<TRIPOS>MOLECULE
*****
 33 37 0 0 0
SMALL
GASTEIGER

@<TRIPOS>ATOM
      1 C         138.8362  142.2479  159.3760 C.3     1  UNL1        0.1662
      2 C         139.9935  141.3392  159.6671 C.3     1  UNL1        0.0483
      3 C         140.3962  141.0689  161.0865 C.3     1  UNL1        0.0331
      4 C         139.6416  141.7072  162.2148 C.ar    1  UNL1        0.0119
      5 C         140.0443  141.4368  163.6342 C.ar    1  UNL1       -0.0013
      6 C         139.2897  142.0752  164.7625 C.ar    1  UNL1       -0.0001
      7 C         138.1323  142.9840  164.4713 C.ar    1  UNL1        0.0031
      8 C         137.7297  143.2543  163.0520 C.ar    1  UNL1        0.0366
      9 C         138.4843  142.6160  161.9237 C.ar    1  UNL1        0.1343
     10 O         138.0816  142.8863  160.5043 O.3     1  UNL1       -0.4795
     11 C         139.6924  141.8048  166.1819 C.ar    1  UNL1        0.0000
     12 C         139.4391  140.4570  166.7897 C.ar    1  UNL1        0.0009
     13 C         139.8418  140.1867  168.2090 C.ar    1  UNL1        0.0114
     14 C         140.4978  141.2641  169.0207 C.ar    1  UNL1        0.0577
     15 CL        140.9005  140.9937  170.4401 Cl      1  UNL1       -0.0822
     16 C         140.7511  142.6118  168.4130 C.ar    1  UNL1        0.0114
     17 C         140.3484  142.8822  166.9936 C.ar    1  UNL1        0.0009
     18 C         138.4335  142.5184  157.9566 C.3     1  UNL1        0.0436
     19 C         138.9446  143.7397  157.2516 C.3     1  UNL1        0.0055
     20 C         140.2627  144.3370  157.6464 C.3     1  UNL1        0.0217
     21 C         140.3051  145.5091  158.5814 C.3     1  UNL1        0.0950
     22 O         142.8499  143.7713  159.6553 O.2     1  UNL1       -0.2520
     23 C         141.8640  144.5113  160.5099 C.2     1  UNL1        0.3110
     24 N         140.6943  145.3101  160.0163 N.am    1  UNL1       -0.2620
     25 C         139.9821  145.8749  161.2095 C.3     1  UNL1        0.1168
     26 C         140.7116  145.4251  162.4405 C.3     1  UNL1        0.1212
     27 N         141.8748  144.5824  162.0082 N.am    1  UNL1       -0.2413
     28 C         142.8733  143.9260  162.9149 C.ar    1  UNL1        0.0584
     29 C         143.3381  144.6313  164.1544 C.ar    1  UNL1        0.0356
     30 C         144.3366  143.9750  165.0611 C.ar    1  UNL1        0.1002
     31 N         144.8703  142.6133  164.7283 N.ar    1  UNL1       -0.2422
     32 C         144.4056  141.9079  163.4888 C.ar    1  UNL1        0.1002
     33 C         143.4071  142.5643  162.5821 C.ar    1  UNL1        0.0356
@<TRIPOS>BOND
     1    22    23    2
     2    23    24   am
     3    24    21    1
     4    21    20    1
     5    20    19    1
     6    19    18    1
     7    18     1    1
     8     1     2    1
     9     2     3    1
    10     3     4    1
    11     4     5   ar
    12     5     6   ar
    13     6    11    1
    14    11    12   ar
    15    12    13   ar
    16    13    14   ar
    17    14    15    1
    18    14    16   ar
    19    16    17   ar
    20     6     7   ar
    21     7     8   ar
    22     8     9   ar
    23     9    10    1
    24    24    25    1
    25    25    26    1
    26    26    27    1
    27    27    28    1
    28    28    29   ar
    29    29    30   ar
    30    30    31   ar
    31    31    32   ar
    32    32    33   ar
    33    27    23   am
    34    33    28   ar
    35    10     1    1
    36     9     4   ar
    37    17    11   ar
@<TRIPOS>MOLECULE
*****
 33 37 0 0 0
SMALL
GASTEIGER

@<TRIPOS>ATOM
      1 C         143.3576  140.7577  160.4114 C.3     1  UNL1        0.1662
      2 C         142.1341  141.5593  160.7436 C.3     1  UNL1        0.0483
      3 C         141.6048  141.5731  162.1470 C.3     1  UNL1        0.0331
      4 C         142.2989  140.7852  163.2182 C.ar    1  UNL1        0.0119
      5 C         141.7695  140.7990  164.6217 C.ar    1  UNL1       -0.0013
      6 C         142.4637  140.0111  165.6928 C.ar    1  UNL1       -0.0001
      7 C         143.6872  139.2094  165.3605 C.ar    1  UNL1        0.0031
      8 C         144.2165  139.1956  163.9571 C.ar    1  UNL1        0.0366
      9 C         143.5224  139.9835  162.8860 C.ar    1  UNL1        0.1343
     10 O         144.0517  139.9697  161.4826 O.3     1  UNL1       -0.4795
     11 C         141.9343  140.0249  167.0962 C.ar    1  UNL1        0.0000
     12 C         142.6907  139.3308  168.1900 C.ar    1  UNL1        0.0009
     13 C         142.1614  139.3445  169.5934 C.ar    1  UNL1        0.0114
     14 C         140.8757  140.0524  169.9031 C.ar    1  UNL1        0.0577
     15 CL        140.3464  140.0661  171.3065 Cl      1  UNL1       -0.0822
     16 C         140.1193  140.7464  168.8095 C.ar    1  UNL1        0.0114
     17 C         140.6486  140.7327  167.4060 C.ar    1  UNL1        0.0009
     18 C         143.8870  140.7439  159.0079 C.3     1  UNL1        0.0436
     19 C         143.1700  139.9674  157.9435 C.3     1  UNL1        0.0055
     20 C         142.7704  138.5435  158.1944 C.3     1  UNL1        0.0217
     21 C         141.3275  138.1431  158.1079 C.3     1  UNL1        0.0950
     22 O         141.5286  137.5454  161.3097 O.2     1  UNL1       -0.2520
     23 C         140.4493  138.3308  160.6255 C.2     1  UNL1        0.3110
     24 N         140.3568  138.6055  159.1538 N.am    1  UNL1       -0.2620
     25 C         139.1233  139.4238  158.9116 C.3     1  UNL1        0.1168
     26 C         138.4534  139.6549  160.2337 C.3     1  UNL1        0.1212
     27 N         139.2729  138.9793  161.2930 N.am    1  UNL1       -0.2413
     28 C         138.9693  138.9563  162.7617 C.ar    1  UNL1        0.0584
     29 C         139.2818  137.7340  163.5731 C.ar    1  UNL1        0.0356
     30 C         138.9782  137.7110  165.0419 C.ar    1  UNL1        0.1002
     31 N         138.3622  138.9103  165.6993 N.ar    1  UNL1       -0.2422
     32 C         138.0497  140.1326  164.8879 C.ar    1  UNL1        0.1002
     33 C         138.3533  140.1555  163.4191 C.ar    1  UNL1        0.0356
@<TRIPOS>BOND
     1    22    23    2
     2    23    24   am
     3    24    21    1
     4    21    20    1
     5    20    19    1
     6    19    18    1
     7    18     1    1
     8     1     2    1
     9     2     3    1
    10     3     4    1
    11     4     5   ar
    12     5     6   ar
    13     6    11    1
    14    11    12   ar
    15    12    13   ar
    16    13    14   ar
    17    14    15    1
    18    14    16   ar
    19    16    17   ar
    20     6     7   ar
    21     7     8   ar
    22     8     9   ar
    23     9    10    1
    24    24    25    1
    25    25    26    1
    26    26    27    1
    27    27    28    1
    28    28    29   ar
    29    29    30   ar
    30    30    31   ar
    31    31    32   ar
    32    32    33   ar
    33    27    23   am
    34    33    28   ar
    35    10     1    1
    36     9     4   ar
    37    17    11   ar
@<TRIPOS>MOLECULE
*****
 33 37 0 0 0
SMALL
GASTEIGER

@<TRIPOS>ATOM
      1 C         141.1100  144.9770  160.7161 C.3     1  UNL1        0.1662
      2 C         139.9604  145.4502  161.5554 C.3     1  UNL1        0.0483
      3 C         139.8378  145.0005  162.9811 C.3     1  UNL1        0.0331
      4 C         140.8647  144.0777  163.5675 C.ar    1  UNL1        0.0119
      5 C         140.7420  143.6281  164.9933 C.ar    1  UNL1       -0.0013
      6 C         141.7690  142.7053  165.5797 C.ar    1  UNL1       -0.0001
      7 C         142.9186  142.2322  164.7403 C.ar    1  UNL1        0.0031
      8 C         143.0413  142.6818  163.3146 C.ar    1  UNL1        0.0366
      9 C         142.0143  143.6046  162.7282 C.ar    1  UNL1        0.1343
     10 O         142.1370  144.0542  161.3025 O.3     1  UNL1       -0.4795
     11 C         141.6463  142.2556  167.0054 C.ar    1  UNL1        0.0000
     12 C         142.6782  141.3400  167.5945 C.ar    1  UNL1        0.0009
     13 C         142.5555  140.8903  169.0202 C.ar    1  UNL1        0.0114
     14 C         141.4010  141.3563  169.8569 C.ar    1  UNL1        0.0577
     15 CL        141.2784  140.9066  171.2827 Cl      1  UNL1       -0.0822
     16 C         140.3692  142.2719  169.2679 C.ar    1  UNL1        0.0114
     17 C         140.4919  142.7216  167.8421 C.ar    1  UNL1        0.0009
     18 C         141.2327  145.4267  159.2903 C.3     1  UNL1        0.0436
     19 C         140.0954  145.2129  158.3359 C.3     1  UNL1        0.0055
     20 C         139.7830  143.8327  157.8385 C.3     1  UNL1        0.0217
     21 C         138.9078  142.9235  158.6492 C.3     1  UNL1        0.0950
     22 O         137.7264  142.4830  161.6591 O.2     1  UNL1       -0.2520
     23 C         138.9672  141.8539  161.0982 C.2     1  UNL1        0.3110
     24 N         139.5102  142.0564  159.7146 N.am    1  UNL1       -0.2620
     25 C         140.7614  141.2395  159.5837 C.3     1  UNL1        0.1168
     26 C         140.9917  140.5322  160.8862 C.3     1  UNL1        0.1212
     27 N         139.8827  140.9119  161.8223 N.am    1  UNL1       -0.2413
     28 C         139.7183  140.4336  163.2344 C.ar    1  UNL1        0.0584
     29 C         138.5267  140.8634  164.0379 C.ar    1  UNL1        0.0356
     30 C         138.3623  140.3851  165.4500 C.ar    1  UNL1        0.1002
     31 N         139.3893  139.4771  166.0587 N.ar    1  UNL1       -0.2422
     32 C         140.5809  139.0473  165.2552 C.ar    1  UNL1        0.1002
     33 C         140.7453  139.5256  163.8431 C.ar    1  UNL1        0.0356
@<TRIPOS>BOND
     1    22    23    2
     2    23    24   am
     3    24    21    1
     4    21    20    1
     5    20    19    1
     6    19    18    1
     7    18     1    1
     8     1     2    1
     9     2     3    1
    10     3     4    1
    11     4     5   ar
    12     5     6   ar
    13     6    11    1
    14    11    12   ar
    15    12    13   ar
    16    13    14   ar
    17    14    15    1
    18    14    16   ar
    19    16    17   ar
    20     6     7   ar
    21     7     8   ar
    22     8     9   ar
    23     9    10    1
    24    24    25    1
    25    25    26    1
    26    26    27    1
    27    27    28    1
    28    28    29   ar
    29    29    30   ar
    30    30    31   ar
    31    31    32   ar
    32    32    33   ar
    33    27    23   am
    34    33    28   ar
    35    10     1    1
    36     9     4   ar
    37    17    11   ar
@<TRIPOS>MOLECULE
*****
 33 37 0 0 0
SMALL
GASTEIGER

@<TRIPOS>ATOM
      1 C         140.9692  144.8258  160.9823 C.3     1  UNL1        0.1662
      2 C         142.0711  143.8433  161.2478 C.3     1  UNL1        0.0483
      3 C         142.1786  143.1814  162.5895 C.3     1  UNL1        0.0331
      4 C         141.1841  143.5019  163.6658 C.ar    1  UNL1        0.0119
      5 C         141.2916  142.8399  165.0076 C.ar    1  UNL1       -0.0013
      6 C         140.2972  143.1605  166.0838 C.ar    1  UNL1       -0.0001
      7 C         139.1952  144.1430  165.8183 C.ar    1  UNL1        0.0031
      8 C         139.0877  144.8049  164.4766 C.ar    1  UNL1        0.0366
      9 C         140.0822  144.4844  163.4003 C.ar    1  UNL1        0.1343
     10 O         139.9747  145.1463  162.0586 O.3     1  UNL1       -0.4795
     11 C         140.4046  142.4986  167.4255 C.ar    1  UNL1        0.0000
     12 C         140.3573  143.3258  168.6759 C.ar    1  UNL1        0.0009
     13 C         140.4648  142.6639  170.0177 C.ar    1  UNL1        0.0114
     14 C         140.6196  141.1747  170.1091 C.ar    1  UNL1        0.0577
     15 CL        140.7270  140.5128  171.4508 Cl      1  UNL1       -0.0822
     16 C         140.6669  140.3474  168.8587 C.ar    1  UNL1        0.0114
     17 C         140.5594  141.0094  167.5169 C.ar    1  UNL1        0.0009
     18 C         140.8617  145.4878  159.6406 C.3     1  UNL1        0.0436
     19 C         141.2540  144.7392  158.4013 C.3     1  UNL1        0.0055
     20 C         140.2024  144.0808  157.5583 C.3     1  UNL1        0.0217
     21 C         139.1039  143.2935  158.2089 C.3     1  UNL1        0.0950
     22 O         137.7006  142.8397  161.1200 O.2     1  UNL1       -0.2520
     23 C         138.7930  141.9999  160.5273 C.2     1  UNL1        0.3110
     24 N         139.4380  142.2085  159.1892 N.am    1  UNL1       -0.2620
     25 C         140.4759  141.1416  159.0035 C.3     1  UNL1        0.1168
     26 C         140.4723  140.2735  160.2268 C.3     1  UNL1        0.1212
     27 N         139.4322  140.8040  161.1686 N.am    1  UNL1       -0.2413
     28 C         139.0913  140.2379  162.5152 C.ar    1  UNL1        0.0584
     29 C         139.4528  138.8203  162.8463 C.ar    1  UNL1        0.0356
     30 C         139.1119  138.2543  164.1929 C.ar    1  UNL1        0.1002
     31 N         138.4093  139.1058  165.2084 N.ar    1  UNL1       -0.2422
     32 C         138.0478  140.5234  164.8773 C.ar    1  UNL1        0.1002
     33 C         138.3887  141.0894  163.5307 C.ar    1  UNL1        0.0356
@<TRIPOS>BOND
     1    22    23    2
     2    23    24   am
     3    24    21    1
     4    21    20    1
     5    20    19    1
     6    19    18    1
     7    18     1    1
     8     1     2    1
     9     2     3    1
    10     3     4    1
    11     4     5   ar
    12     5     6   ar
    13     6    11    1
    14    11    12   ar
    15    12    13   ar
    16    13    14   ar
    17    14    15    1
    18    14    16   ar
    19    16    17   ar
    20     6     7   ar
    21     7     8   ar
    22     8     9   ar
    23     9    10    1
    24    24    25    1
    25    25    26    1
    26    26    27    1
    27    27    28    1
    28    28    29   ar
    29    29    30   ar
    30    30    31   ar
    31    31    32   ar
    32    32    33   ar
    33    27    23   am
    34    33    28   ar
    35    10     1    1
    36     9     4   ar
    37    17    11   ar
@<TRIPOS>MOLECULE
*****
 33 37 0 0 0
SMALL
GASTEIGER

@<TRIPOS>ATOM
      1 C         139.4726  139.9527  159.8287 C.3     1  UNL1        0.1662
      2 C         140.0869  141.2925  160.1070 C.3     1  UNL1        0.0483
      3 C         140.2675  141.7553  161.5223 C.3     1  UNL1        0.0331
      4 C         139.8338  140.8783  162.6593 C.ar    1  UNL1        0.0119
      5 C         140.0144  141.3412  164.0747 C.ar    1  UNL1       -0.0013
      6 C         139.5808  140.4642  165.2117 C.ar    1  UNL1       -0.0001
      7 C         138.9665  139.1243  164.9333 C.ar    1  UNL1        0.0031
      8 C         138.7859  138.6615  163.5180 C.ar    1  UNL1        0.0366
      9 C         139.2196  139.5385  162.3810 C.ar    1  UNL1        0.1343
     10 O         139.0390  139.0757  160.9657 O.3     1  UNL1       -0.4795
     11 C         139.7613  140.9270  166.6270 C.ar    1  UNL1        0.0000
     12 C         139.3796  140.0272  167.7649 C.ar    1  UNL1        0.0009
     13 C         139.5602  140.4901  169.1802 C.ar    1  UNL1        0.0114
     14 C         140.1225  141.8527  169.4577 C.ar    1  UNL1        0.0577
     15 CL        140.3031  142.3155  170.8730 Cl      1  UNL1       -0.0822
     16 C         140.5042  142.7525  168.3199 C.ar    1  UNL1        0.0114
     17 C         140.3237  142.2897  166.9045 C.ar    1  UNL1        0.0009
     18 C         139.2920  139.4898  158.4133 C.3     1  UNL1        0.0436
     19 C         139.9373  138.2165  157.9526 C.3     1  UNL1        0.0055
     20 C         141.3681  138.2210  157.5021 C.3     1  UNL1        0.0217
     21 C         142.4470  137.7404  158.4267 C.3     1  UNL1        0.0950
     22 O         141.7834  137.2415  161.5827 O.2     1  UNL1       -0.2520
     23 C         142.5900  138.3738  161.0196 C.2     1  UNL1        0.3110
     24 N         142.8950  138.6032  159.5690 N.am    1  UNL1       -0.2620
     25 C         143.7268  139.8467  159.4612 C.3     1  UNL1        0.1168
     26 C         143.9358  140.3860  160.8452 C.3     1  UNL1        0.1212
     27 N         143.2332  139.4757  161.8084 N.am    1  UNL1       -0.2413
     28 C         143.1828  139.6386  163.2987 C.ar    1  UNL1        0.0584
     29 C         142.7332  138.4981  164.1630 C.ar    1  UNL1        0.0356
     30 C         142.6827  138.6611  165.6533 C.ar    1  UNL1        0.1002
     31 N         143.0818  139.9644  166.2792 N.ar    1  UNL1       -0.2422
     32 C         143.5314  141.1049  165.4148 C.ar    1  UNL1        0.1002
     33 C         143.5819  140.9420  163.9246 C.ar    1  UNL1        0.0356
@<TRIPOS>BOND
     1    22    23    2
     2    23    24   am
     3    24    21    1
     4    21    20    1
     5    20    19    1
     6    19    18    1
     7    18     1    1
     8     1     2    1
     9     2     3    1
    10     3     4    1
    11     4     5   ar
    12     5     6   ar
    13     6    11    1
    14    11    12   ar
    15    12    13   ar
    16    13    14   ar
    17    14    15    1
    18    14    16   ar
    19    16    17   ar
    20     6     7   ar
    21     7     8   ar
    22     8     9   ar
    23     9    10    1
    24    24    25    1
    25    25    26    1
    26    26    27    1
    27    27    28    1
    28    28    29   ar
    29    29    30   ar
    30    30    31   ar
    31    31    32   ar
    32    32    33   ar
    33    27    23   am
    34    33    28   ar
    35    10     1    1
    36     9     4   ar
    37    17    11   ar
@<TRIPOS>MOLECULE
*****
 33 37 0 0 0
SMALL
GASTEIGER

@<TRIPOS>ATOM
      1 C         141.3227  139.1777  159.7449 C.3     1  UNL1        0.1662
      2 C         141.8153  140.5187  160.2020 C.3     1  UNL1        0.0483
      3 C         141.8197  140.8578  161.6631 C.3     1  UNL1        0.0331
      4 C         141.3315  139.8560  162.6671 C.ar    1  UNL1        0.0119
      5 C         141.3359  140.1953  164.1283 C.ar    1  UNL1       -0.0013
      6 C         140.8476  139.1935  165.1323 C.ar    1  UNL1       -0.0001
      7 C         140.3550  137.8524  164.6751 C.ar    1  UNL1        0.0031
      8 C         140.3506  137.5132  163.2140 C.ar    1  UNL1        0.0366
      9 C         140.8388  138.5150  162.2100 C.ar    1  UNL1        0.1343
     10 O         140.8344  138.1759  160.7489 O.3     1  UNL1       -0.4795
     11 C         140.8520  139.5326  166.5934 C.ar    1  UNL1        0.0000
     12 C         139.5643  139.8533  167.2928 C.ar    1  UNL1        0.0009
     13 C         139.5687  140.1924  168.7539 C.ar    1  UNL1        0.0114
     14 C         140.8608  140.2110  169.5157 C.ar    1  UNL1        0.0577
     15 CL        140.8652  140.5502  170.9768 Cl      1  UNL1       -0.0822
     16 C         142.1484  139.8904  168.8163 C.ar    1  UNL1        0.0114
     17 C         142.1441  139.5512  167.3552 C.ar    1  UNL1        0.0009
     18 C         141.3182  138.8384  158.2837 C.3     1  UNL1        0.0436
     19 C         140.0604  138.9937  157.4815 C.3     1  UNL1        0.0055
     20 C         139.3885  140.3319  157.3916 C.3     1  UNL1        0.0217
     21 C         138.0876  140.5671  158.1004 C.3     1  UNL1        0.0950
     22 O         138.9450  143.3436  159.5855 O.2     1  UNL1       -0.2520
     23 C         138.4679  142.0927  160.2620 C.2     1  UNL1        0.3110
     24 N         138.0738  140.8165  159.5794 N.am    1  UNL1       -0.2620
     25 C         137.6635  139.8336  160.6355 C.3     1  UNL1        0.1168
     26 C         137.8040  140.5022  161.9708 C.3     1  UNL1        0.1212
     27 N         138.3011  141.8986  161.7400 N.am    1  UNL1       -0.2413
     28 C         138.5822  142.9210  162.8009 C.ar    1  UNL1        0.0584
     29 C         137.5337  143.2502  163.8218 C.ar    1  UNL1        0.0356
     30 C         137.8147  144.2727  164.8827 C.ar    1  UNL1        0.1002
     31 N         139.1442  144.9660  164.9227 N.ar    1  UNL1       -0.2422
     32 C         140.1927  144.6369  163.9018 C.ar    1  UNL1        0.1002
     33 C         139.9117  143.6144  162.8409 C.ar    1  UNL1        0.0356
@<TRIPOS>BOND
     1    22    23    2
     2    23    24   am
     3    24    21    1
     4    21    20    1
     5    20    19    1
     6    19    18    1
     7    18     1    1
     8     1     2    1
     9     2     3    1
    10     3     4    1
    11     4     5   ar
    12     5     6   ar
    13     6    11    1
    14    11    12   ar
    15    12    13   ar
    16    13    14   ar
    17    14    15    1
    18    14    16   ar
    19    16    17   ar
    20     6     7   ar
    21     7     8   ar
    22     8     9   ar
    23     9    10    1
    24    24    25    1
    25    25    26    1
    26    26    27    1
    27    27    28    1
    28    28    29   ar
    29    29    30   ar
    30    30    31   ar
    31    31    32   ar
    32    32    33   ar
    33    27    23   am
    34    33    28   ar
    35    10     1    1
    36     9     4   ar
    37    17    11   ar
@<TRIPOS>MOLECULE
*****
 33 37 0 0 0
SMALL
GASTEIGER

@<TRIPOS>ATOM
      1 C         138.1808  140.2336  160.5620 C.3     1  UNL1        0.1662
      2 C         137.8862  139.0148  161.3853 C.3     1  UNL1        0.0483
      3 C         138.1879  139.0113  162.8546 C.3     1  UNL1        0.0331
      4 C         138.7842  140.2266  163.5006 C.ar    1  UNL1        0.0119
      5 C         139.0859  140.2231  164.9700 C.ar    1  UNL1       -0.0013
      6 C         139.6823  141.4384  165.6161 C.ar    1  UNL1       -0.0001
      7 C         139.9769  142.6573  164.7928 C.ar    1  UNL1        0.0031
      8 C         139.6752  142.6607  163.3235 C.ar    1  UNL1        0.0366
      9 C         139.0788  141.4454  162.6774 C.ar    1  UNL1        0.1343
     10 O         138.7771  141.4489  161.2081 O.3     1  UNL1       -0.4795
     11 C         139.9840  141.4350  167.0854 C.ar    1  UNL1        0.0000
     12 C         140.6222  142.6335  167.7229 C.ar    1  UNL1        0.0009
     13 C         140.9239  142.6300  169.1922 C.ar    1  UNL1        0.0114
     14 C         140.5874  141.4281  170.0241 C.ar    1  UNL1        0.0577
     15 CL        140.8891  141.4246  171.4934 Cl      1  UNL1       -0.0822
     16 C         139.9492  140.2296  169.3868 C.ar    1  UNL1        0.0114
     17 C         139.6474  140.2330  167.9174 C.ar    1  UNL1        0.0009
     18 C         137.8791  140.2371  159.0926 C.3     1  UNL1        0.0436
     19 C         138.9608  139.9168  158.1041 C.3     1  UNL1        0.0055
     20 C         139.6685  138.5957  158.1685 C.3     1  UNL1        0.0217
     21 C         141.1184  138.5392  158.5486 C.3     1  UNL1        0.0950
     22 O         141.3181  137.4396  161.6147 O.2     1  UNL1       -0.2520
     23 C         141.7057  138.8095  161.1423 C.2     1  UNL1        0.3110
     24 N         141.6139  139.3150  159.7330 N.am    1  UNL1       -0.2620
     25 C         142.1046  140.7323  159.7159 C.3     1  UNL1        0.1168
     26 C         142.4997  141.1029  161.1147 C.3     1  UNL1        0.1212
     27 N         142.2531  139.9145  161.9963 N.am    1  UNL1       -0.2413
     28 C         142.5091  139.8436  163.4725 C.ar    1  UNL1        0.0584
     29 C         143.1083  141.0185  164.1871 C.ar    1  UNL1        0.0356
     30 C         143.3643  140.9476  165.6634 C.ar    1  UNL1        0.1002
     31 N         143.0211  139.7019  166.4251 N.ar    1  UNL1       -0.2422
     32 C         142.4220  138.5270  165.7106 C.ar    1  UNL1        0.1002
     33 C         142.1660  138.5979  164.2343 C.ar    1  UNL1        0.0356
@<TRIPOS>BOND
     1    22    23    2
     2    23    24   am
     3    24    21    1
     4    21    20    1
     5    20    19    1
     6    19    18    1
     7    18     1    1
     8     1     2    1
     9     2     3    1
    10     3     4    1
    11     4     5   ar
    12     5     6   ar
    13     6    11    1
    14    11    12   ar
    15    12    13   ar
    16    13    14   ar
    17    14    15    1
    18    14    16   ar
    19    16    17   ar
    20     6     7   ar
    21     7     8   ar
    22     8     9   ar
    23     9    10    1
    24    24    25    1
    25    25    26    1
    26    26    27    1
    27    27    28    1
    28    28    29   ar
    29    29    30   ar
    30    30    31   ar
    31    31    32   ar
    32    32    33   ar
    33    27    23   am
    34    33    28   ar
    35    10     1    1
    36     9     4   ar
    37    17    11   ar
@<TRIPOS>MOLECULE
*****
 33 37 0 0 0
SMALL
GASTEIGER

@<TRIPOS>ATOM
      1 C         143.3592  142.4687  159.9218 C.3     1  UNL1        0.1662
      2 C         142.8210  141.0743  160.0479 C.3     1  UNL1        0.0483
      3 C         142.2046  140.6222  161.3385 C.3     1  UNL1        0.0331
      4 C         142.1263  141.5645  162.5029 C.ar    1  UNL1        0.0119
      5 C         141.5099  141.1124  163.7935 C.ar    1  UNL1       -0.0013
      6 C         141.4316  142.0547  164.9580 C.ar    1  UNL1       -0.0001
      7 C         141.9699  143.4491  164.8319 C.ar    1  UNL1        0.0031
      8 C         142.5864  143.9012  163.5413 C.ar    1  UNL1        0.0366
      9 C         142.6646  142.9589  162.3768 C.ar    1  UNL1        0.1343
     10 O         143.2810  143.4110  161.0863 O.3     1  UNL1       -0.4795
     11 C         140.8152  141.6026  166.2485 C.ar    1  UNL1        0.0000
     12 C         139.9502  140.3774  166.2779 C.ar    1  UNL1        0.0009
     13 C         139.3337  139.9253  167.5685 C.ar    1  UNL1        0.0114
     14 C         139.5822  140.6983  168.8297 C.ar    1  UNL1        0.0577
     15 CL        138.9658  140.2463  170.1202 Cl      1  UNL1       -0.0822
     16 C         140.4472  141.9235  168.8004 C.ar    1  UNL1        0.0114
     17 C         141.0637  142.3756  167.5098 C.ar    1  UNL1        0.0009
     18 C         143.9757  142.9209  158.6312 C.3     1  UNL1        0.0436
     19 C         143.2460  142.7115  157.3376 C.3     1  UNL1        0.0055
     20 C         142.3830  143.8035  156.7780 C.3     1  UNL1        0.0217
     21 C         140.9458  143.9109  157.1937 C.3     1  UNL1        0.0950
     22 O         139.2378  142.0411  159.2519 O.2     1  UNL1       -0.2520
     23 C         139.8139  143.3916  159.5589 C.2     1  UNL1        0.3110
     24 N         140.5989  144.2511  158.6128 N.am    1  UNL1       -0.2620
     25 C         140.9762  145.5104  159.3350 C.3     1  UNL1        0.1168
     26 C         140.4244  145.4294  160.7274 C.3     1  UNL1        0.1212
     27 N         139.7060  144.1198  160.8658 N.am    1  UNL1       -0.2413
     28 C         139.0031  143.6253  162.0952 C.ar    1  UNL1        0.0584
     29 C         138.8653  144.5199  163.2913 C.ar    1  UNL1        0.0356
     30 C         138.1625  144.0255  164.5208 C.ar    1  UNL1        0.1002
     31 N         137.5974  142.6365  164.5541 N.ar    1  UNL1       -0.2422
     32 C         137.7352  141.7418  163.3580 C.ar    1  UNL1        0.1002
     33 C         138.4380  142.2363  162.1286 C.ar    1  UNL1        0.0356
@<TRIPOS>BOND
     1    22    23    2
     2    23    24   am
     3    24    21    1
     4    21    20    1
     5    20    19    1
     6    19    18    1
     7    18     1    1
     8     1     2    1
     9     2     3    1
    10     3     4    1
    11     4     5   ar
    12     5     6   ar
    13     6    11    1
    14    11    12   ar
    15    12    13   ar
    16    13    14   ar
    17    14    15    1
    18    14    16   ar
    19    16    17   ar
    20     6     7   ar
    21     7     8   ar
    22     8     9   ar
    23     9    10    1
    24    24    25    1
    25    25    26    1
    26    26    27    1
    27    27    28    1
    28    28    29   ar
    29    29    30   ar
    30    30    31   ar
    31    31    32   ar
    32    32    33   ar
    33    27    23   am
    34    33    28   ar
    35    10     1    1
    36     9     4   ar
    37    17    11   ar
@<TRIPOS>MOLECULE
*****
 33 37 0 0 0
SMALL
GASTEIGER

@<TRIPOS>ATOM
      1 C         140.1699  142.2471  160.0372 C.3     1  UNL1        0.1662
      2 C         141.5141  142.6046  160.5987 C.3     1  UNL1        0.0483
      3 C         141.7540  142.5268  162.0773 C.3     1  UNL1        0.0331
      4 C         140.6498  142.0916  162.9945 C.ar    1  UNL1        0.0119
      5 C         140.8898  142.0138  164.4731 C.ar    1  UNL1       -0.0013
      6 C         139.7855  141.5786  165.3903 C.ar    1  UNL1       -0.0001
      7 C         138.4412  141.2211  164.8288 C.ar    1  UNL1        0.0031
      8 C         138.2013  141.2989  163.3502 C.ar    1  UNL1        0.0366
      9 C         139.3056  141.7341  162.4330 C.ar    1  UNL1        0.1343
     10 O         139.0656  141.8119  160.9544 O.3     1  UNL1       -0.4795
     11 C         140.0255  141.5008  166.8689 C.ar    1  UNL1        0.0000
     12 C         140.6104  142.6749  167.5966 C.ar    1  UNL1        0.0009
     13 C         140.8503  142.5972  169.0752 C.ar    1  UNL1        0.0114
     14 C         140.5054  141.3453  169.8262 C.ar    1  UNL1        0.0577
     15 CL        140.7453  141.2676  171.3048 Cl      1  UNL1       -0.0822
     16 C         139.9205  140.1713  169.0986 C.ar    1  UNL1        0.0114
     17 C         139.6805  140.2490  167.6199 C.ar    1  UNL1        0.0009
     18 C         139.9299  142.3249  158.5586 C.3     1  UNL1        0.0436
     19 C         139.9996  141.0824  157.7211 C.3     1  UNL1        0.0055
     20 C         139.0972  139.9228  158.0230 C.3     1  UNL1        0.0217
     21 C         139.6699  138.6499  158.5720 C.3     1  UNL1        0.0950
     22 O         142.4791  139.2454  160.1224 O.2     1  UNL1       -0.2520
     23 C         141.2015  138.7838  160.7587 C.2     1  UNL1        0.3110
     24 N         139.9103  138.5101  160.0460 N.am    1  UNL1       -0.2620
     25 C         138.9017  138.0720  161.0661 C.3     1  UNL1        0.1168
     26 C         139.5695  138.0750  162.4093 C.3     1  UNL1        0.1212
     27 N         140.9909  138.5149  162.2192 N.am    1  UNL1       -0.2413
     28 C         142.0208  138.6604  163.3000 C.ar    1  UNL1        0.0584
     29 C         141.6691  138.3308  164.7205 C.ar    1  UNL1        0.0356
     30 C         142.6990  138.4763  165.8012 C.ar    1  UNL1        0.1002
     31 N         144.0806  138.9513  165.4616 N.ar    1  UNL1       -0.2422
     32 C         144.4323  139.2809  164.0412 C.ar    1  UNL1        0.1002
     33 C         143.4024  139.1355  162.9604 C.ar    1  UNL1        0.0356
@<TRIPOS>BOND
     1    22    23    2
     2    23    24   am
     3    24    21    1
     4    21    20    1
     5    20    19    1
     6    19    18    1
     7    18     1    1
     8     1     2    1
     9     2     3    1
    10     3     4    1
    11     4     5   ar
    12     5     6   ar
    13     6    11    1
    14    11    12   ar
    15    12    13   ar
    16    13    14   ar
    17    14    15    1
    18    14    16   ar
    19    16    17   ar
    20     6     7   ar
    21     7     8   ar
    22     8     9   ar
    23     9    10    1
    24    24    25    1
    25    25    26    1
    26    26    27    1
    27    27    28    1
    28    28    29   ar
    29    29    30   ar
    30    30    31   ar
    31    31    32   ar
    32    32    33   ar
    33    27    23   am
    34    33    28   ar
    35    10     1    1
    36     9     4   ar
    37    17    11   ar
