@<TRIPOS>MOLECULE
*****
 34 37 0 0 0
SMALL
GASTEIGER

@<TRIPOS>ATOM
      1 O         140.5810  143.6193  165.4596 O.2     1  UNL1       -0.2510
      2 C         141.4460  142.9863  164.4103 C.2     1  UNL1        0.3226
      3 N         142.4290  141.9195  164.7920 N.am    1  UNL1       -0.1691
      4 N         141.3279  143.4200  162.9792 N.am    1  UNL1       -0.2629
      5 C         142.1929  142.7869  161.9299 C.3     1  UNL1        0.0964
      6 C         142.0748  143.2206  160.4989 C.3     1  UNL1        0.0376
      7 C         141.0918  144.2874  160.1171 C.3     1  UNL1        0.0609
      8 C         140.2269  144.9204  161.1664 C.3     1  UNL1        0.0376
      9 C         140.3449  144.4867  162.5975 C.3     1  UNL1        0.0964
     10 H         142.9967  141.5040  164.1033 H       1  UNL1        0.1781
     11 N         140.9738  144.7211  158.6860 N.3     1  UNL1       -0.2736
     12 C         139.7985  144.2822  157.8638 C.3     1  UNL1        0.0758
     13 C         139.6805  144.7159  156.4328 C.3     1  UNL1        0.0609
     14 C         140.7378  145.5885  155.8239 C.3     1  UNL1        0.1687
     15 C         141.9131  146.0274  156.6461 C.3     1  UNL1        0.0609
     16 C         142.0311  145.5937  158.0771 C.3     1  UNL1        0.0758
     17 O         140.6197  146.0222  154.3928 O.3     1  UNL1       -0.4790
     18 C         140.2850  147.4474  154.0662 C.ar    1  UNL1        0.1393
     19 C         140.7676  148.0561  152.7830 C.ar    1  UNL1        0.0378
     20 C         140.4328  149.4813  152.4564 C.ar    1  UNL1        0.0154
     21 C         139.6155  150.2979  153.4130 C.ar    1  UNL1        0.0684
     22 CL        139.2808  151.7231  153.0864 Cl      1  UNL1       -0.0814
     23 C         139.1329  149.6893  154.6962 C.ar    1  UNL1        0.0712
     24 CL        138.3156  150.5058  155.6529 Cl      1  UNL1       -0.0813
     25 C         139.4676  148.2641  155.0228 C.ar    1  UNL1        0.0491
     26 S         142.5471  141.4858  166.2231 S.O2    1  UNL1        0.0768
     27 O         141.4882  140.4480  165.9959 O.2     1  UNL1       -0.1498
     28 O         143.6060  142.5236  166.4502 O.2     1  UNL1       -0.1498
     29 C         142.6652  141.0521  167.6542 C.ar    1  UNL1        0.1253
     30 C         142.4177  139.6204  168.0269 C.ar    1  UNL1        0.0202
     31 C         142.5358  139.1868  169.4579 C.ar    1  UNL1        0.0014
     32 C         142.9014  140.1848  170.5163 C.ar    1  UNL1        0.0001
     33 C         143.1489  141.6165  170.1436 C.ar    1  UNL1        0.0014
     34 C         143.0308  142.0502  168.7126 C.ar    1  UNL1        0.0202
@<TRIPOS>BOND
     1     1     2    2
     2     2     3   am
     3     3    26    1
     4    26    27    2
     5    26    28    2
     6    26    29    1
     7    29    30   ar
     8    30    31   ar
     9    31    32   ar
    10    32    33   ar
    11    33    34   ar
    12     2     4   am
    13     4     5    1
    14     5     6    1
    15     6     7    1
    16     7    11    1
    17    11    12    1
    18    12    13    1
    19    13    14    1
    20    14    17    1
    21    17    18    1
    22    18    19   ar
    23    19    20   ar
    24    20    21   ar
    25    21    22    1
    26    21    23   ar
    27    23    24    1
    28    23    25   ar
    29    14    15    1
    30    15    16    1
    31     7     8    1
    32     8     9    1
    33    34    29   ar
    34     9     4    1
    35    16    11    1
    36    25    18   ar
    37     3    10    1
@<TRIPOS>MOLECULE
*****
 34 37 0 0 0
SMALL
GASTEIGER

@<TRIPOS>ATOM
      1 O         138.5284  139.7175  164.6522 O.2     1  UNL1       -0.2510
      2 C         139.8995  139.9427  164.0873 C.2     1  UNL1        0.3226
      3 N         140.9526  140.6130  164.9190 N.am    1  UNL1       -0.1691
      4 N         140.2177  139.4976  162.6905 N.am    1  UNL1       -0.2629
      5 C         141.5888  139.7228  162.1256 C.3     1  UNL1        0.0964
      6 C         141.9069  139.2777  160.7290 C.3     1  UNL1        0.0376
      7 C         140.8538  138.6075  159.8972 C.3     1  UNL1        0.0609
      8 C         139.4827  138.3823  160.4622 C.3     1  UNL1        0.0376
      9 C         139.1646  138.8274  161.8588 C.3     1  UNL1        0.0964
     10 H         141.8525  140.7608  164.5482 H       1  UNL1        0.1781
     11 N         141.1720  138.1624  158.5005 N.3     1  UNL1       -0.2736
     12 C         140.0620  137.8254  157.5496 C.3     1  UNL1        0.0758
     13 C         140.3801  137.3804  156.1529 C.3     1  UNL1        0.0609
     14 C         141.8083  137.2722  155.7072 C.3     1  UNL1        0.1687
     15 C         142.9183  137.6092  156.6582 C.3     1  UNL1        0.0609
     16 C         142.6001  138.0542  158.0548 C.3     1  UNL1        0.0758
     17 O         142.1264  136.8271  154.3105 O.3     1  UNL1       -0.4790
     18 C         142.2212  135.3643  153.9928 C.ar    1  UNL1        0.1393
     19 C         141.6564  134.8379  152.7068 C.ar    1  UNL1        0.0378
     20 C         141.7512  133.3750  152.3891 C.ar    1  UNL1        0.0154
     21 C         142.4108  132.4384  153.3574 C.ar    1  UNL1        0.0684
     22 CL        142.5056  130.9756  153.0397 Cl      1  UNL1       -0.0814
     23 C         142.9757  132.9648  154.6434 C.ar    1  UNL1        0.0712
     24 CL        143.6354  132.0283  155.6118 Cl      1  UNL1       -0.0813
     25 C         142.8809  134.4276  154.9612 C.ar    1  UNL1        0.0491
     26 S         140.6345  141.0581  166.3156 S.O2    1  UNL1        0.0768
     27 O         141.0844  139.7276  166.8421 O.2     1  UNL1       -0.1498
     28 O         140.1846  142.3886  165.7891 O.2     1  UNL1       -0.1498
     29 C         140.3164  141.5033  167.7123 C.ar    1  UNL1        0.1253
     30 C         139.6164  140.5705  168.6557 C.ar    1  UNL1        0.0202
     31 C         139.2983  141.0157  170.0523 C.ar    1  UNL1        0.0014
     32 C         139.6803  142.3936  170.5056 C.ar    1  UNL1        0.0001
     33 C         140.3803  143.3263  169.5623 C.ar    1  UNL1        0.0014
     34 C         140.6984  142.8812  168.1656 C.ar    1  UNL1        0.0202
@<TRIPOS>BOND
     1     1     2    2
     2     2     3   am
     3     3    26    1
     4    26    27    2
     5    26    28    2
     6    26    29    1
     7    29    30   ar
     8    30    31   ar
     9    31    32   ar
    10    32    33   ar
    11    33    34   ar
    12     2     4   am
    13     4     5    1
    14     5     6    1
    15     6     7    1
    16     7    11    1
    17    11    12    1
    18    12    13    1
    19    13    14    1
    20    14    17    1
    21    17    18    1
    22    18    19   ar
    23    19    20   ar
    24    20    21   ar
    25    21    22    1
    26    21    23   ar
    27    23    24    1
    28    23    25   ar
    29    14    15    1
    30    15    16    1
    31     7     8    1
    32     8     9    1
    33    34    29   ar
    34     9     4    1
    35    16    11    1
    36    25    18   ar
    37     3    10    1
@<TRIPOS>MOLECULE
*****
 34 37 0 0 0
SMALL
GASTEIGER

@<TRIPOS>ATOM
      1 O         143.2296  139.3913  165.3077 O.2     1  UNL1       -0.2510
      2 C         142.2532  140.0836  164.4037 C.2     1  UNL1        0.3226
      3 N         141.4730  141.2626  164.9049 N.am    1  UNL1       -0.1691
      4 N         142.0570  139.5969  162.9984 N.am    1  UNL1       -0.2629
      5 C         141.0806  140.2892  162.0944 C.3     1  UNL1        0.0964
      6 C         140.8844  139.8025  160.6893 C.3     1  UNL1        0.0376
      7 C         141.6646  138.6234  160.1881 C.3     1  UNL1        0.0609
      8 C         142.6410  137.9311  161.0921 C.3     1  UNL1        0.0376
      9 C         142.8372  138.4179  162.4973 C.3     1  UNL1        0.0964
     10 H         140.8321  141.7170  164.3115 H       1  UNL1        0.1781
     11 N         141.4683  138.1367  158.7828 N.3     1  UNL1       -0.2736
     12 C         140.0946  138.1172  158.1809 C.3     1  UNL1        0.0758
     13 C         139.8984  137.6305  156.7757 C.3     1  UNL1        0.0609
     14 C         141.0760  137.1634  155.9725 C.3     1  UNL1        0.1687
     15 C         142.4497  137.1829  156.5744 C.3     1  UNL1        0.0609
     16 C         142.6459  137.6696  157.9796 C.3     1  UNL1        0.0758
     17 O         140.8797  136.6767  154.5672 O.3     1  UNL1       -0.4790
     18 C         141.2896  135.2834  154.1919 C.ar    1  UNL1        0.1393
     19 C         141.4858  134.9223  152.7493 C.ar    1  UNL1        0.0378
     20 C         141.8957  133.5290  152.3741 C.ar    1  UNL1        0.0154
     21 C         142.1094  132.4969  153.4414 C.ar    1  UNL1        0.0684
     22 CL        142.5192  131.1037  153.0661 Cl      1  UNL1       -0.0814
     23 C         141.9131  132.8581  154.8839 C.ar    1  UNL1        0.0712
     24 CL        142.1268  131.8260  155.9512 Cl      1  UNL1       -0.0813
     25 C         141.5033  134.2513  155.2592 C.ar    1  UNL1        0.0491
     26 S         141.6692  141.7493  166.3101 S.O2    1  UNL1        0.0768
     27 O         140.5222  140.8968  166.7655 O.2     1  UNL1       -0.1498
     28 O         142.8162  142.6019  165.8546 O.2     1  UNL1       -0.1498
     29 C         141.8655  142.2361  167.7153 C.ar    1  UNL1        0.1253
     30 C         143.1924  142.0591  168.3919 C.ar    1  UNL1        0.0202
     31 C         143.3886  142.5459  169.7970 C.ar    1  UNL1        0.0014
     32 C         142.2578  143.2096  170.5256 C.ar    1  UNL1        0.0001
     33 C         140.9309  143.3865  169.8491 C.ar    1  UNL1        0.0014
     34 C         140.7347  142.8998  168.4439 C.ar    1  UNL1        0.0202
@<TRIPOS>BOND
     1     1     2    2
     2     2     3   am
     3     3    26    1
     4    26    27    2
     5    26    28    2
     6    26    29    1
     7    29    30   ar
     8    30    31   ar
     9    31    32   ar
    10    32    33   ar
    11    33    34   ar
    12     2     4   am
    13     4     5    1
    14     5     6    1
    15     6     7    1
    16     7    11    1
    17    11    12    1
    18    12    13    1
    19    13    14    1
    20    14    17    1
    21    17    18    1
    22    18    19   ar
    23    19    20   ar
    24    20    21   ar
    25    21    22    1
    26    21    23   ar
    27    23    24    1
    28    23    25   ar
    29    14    15    1
    30    15    16    1
    31     7     8    1
    32     8     9    1
    33    34    29   ar
    34     9     4    1
    35    16    11    1
    36    25    18   ar
    37     3    10    1
@<TRIPOS>MOLECULE
*****
 34 37 0 0 0
SMALL
GASTEIGER

@<TRIPOS>ATOM
      1 O         143.3482  142.8557  165.4720 O.2     1  UNL1       -0.2510
      2 C         142.6018  142.0222  164.4730 C.2     1  UNL1        0.3226
      3 N         141.3609  141.2880  164.8866 N.am    1  UNL1       -0.1691
      4 N         143.0962  141.9229  163.0602 N.am    1  UNL1       -0.2629
      5 C         142.3497  141.0894  162.0612 C.3     1  UNL1        0.0964
      6 C         142.8442  140.9902  160.6486 C.3     1  UNL1        0.0376
      7 C         144.0851  141.7244  160.2349 C.3     1  UNL1        0.0609
      8 C         144.8316  142.5579  161.2339 C.3     1  UNL1        0.0376
      9 C         144.3371  142.6571  162.6466 C.3     1  UNL1        0.0964
     10 H         140.8709  140.7410  164.2309 H       1  UNL1        0.1781
     11 N         144.5795  141.6251  158.8222 N.3     1  UNL1       -0.2736
     12 C         144.0421  140.5604  157.9126 C.3     1  UNL1        0.0758
     13 C         144.5365  140.4611  156.4999 C.3     1  UNL1        0.0609
     14 C         145.5684  141.4266  155.9969 C.3     1  UNL1        0.1687
     15 C         146.1059  142.4913  156.9065 C.3     1  UNL1        0.0609
     16 C         145.6115  142.5906  158.3192 C.3     1  UNL1        0.0758
     17 O         146.0629  141.3273  154.5842 O.3     1  UNL1       -0.4790
     18 C         147.3269  142.0271  154.1810 C.ar    1  UNL1        0.1393
     19 C         147.2595  143.3187  153.4212 C.ar    1  UNL1        0.0378
     20 C         148.5236  144.0185  153.0181 C.ar    1  UNL1        0.0154
     21 C         149.8549  143.4267  153.3747 C.ar    1  UNL1        0.0684
     22 CL        151.1189  144.1264  152.9715 Cl      1  UNL1       -0.0814
     23 C         149.9223  142.1351  154.1345 C.ar    1  UNL1        0.0712
     24 CL        151.2536  141.5433  154.4911 Cl      1  UNL1       -0.0813
     25 C         148.6583  141.4353  154.5376 C.ar    1  UNL1        0.0491
     26 S         140.8664  141.3873  166.2992 S.O2    1  UNL1        0.0768
     27 O         139.8578  142.4129  165.8742 O.2     1  UNL1       -0.1498
     28 O         141.8750  140.3616  166.7243 O.2     1  UNL1       -0.1498
     29 C         140.3720  141.4865  167.7120 C.ar    1  UNL1        0.1253
     30 C         140.6298  142.7293  168.5113 C.ar    1  UNL1        0.0202
     31 C         140.1353  142.8285  169.9239 C.ar    1  UNL1        0.0014
     32 C         139.3831  141.6849  170.5373 C.ar    1  UNL1        0.0001
     33 C         139.1253  140.4420  169.7380 C.ar    1  UNL1        0.0014
     34 C         139.6197  140.3429  168.3254 C.ar    1  UNL1        0.0202
@<TRIPOS>BOND
     1     1     2    2
     2     2     3   am
     3     3    26    1
     4    26    27    2
     5    26    28    2
     6    26    29    1
     7    29    30   ar
     8    30    31   ar
     9    31    32   ar
    10    32    33   ar
    11    33    34   ar
    12     2     4   am
    13     4     5    1
    14     5     6    1
    15     6     7    1
    16     7    11    1
    17    11    12    1
    18    12    13    1
    19    13    14    1
    20    14    17    1
    21    17    18    1
    22    18    19   ar
    23    19    20   ar
    24    20    21   ar
    25    21    22    1
    26    21    23   ar
    27    23    24    1
    28    23    25   ar
    29    14    15    1
    30    15    16    1
    31     7     8    1
    32     8     9    1
    33    34    29   ar
    34     9     4    1
    35    16    11    1
    36    25    18   ar
    37     3    10    1
@<TRIPOS>MOLECULE
*****
 34 37 0 0 0
SMALL
GASTEIGER

@<TRIPOS>ATOM
      1 O         139.9857  140.0485  163.9814 O.2     1  UNL1       -0.2510
      2 C         140.4643  141.4632  163.8423 C.2     1  UNL1        0.3226
      3 N         141.0487  142.1770  165.0251 N.am    1  UNL1       -0.1691
      4 N         140.3586  142.1642  162.5204 N.am    1  UNL1       -0.2629
      5 C         140.8372  143.5790  162.3813 C.3     1  UNL1        0.0964
      6 C         140.7315  144.2799  161.0594 C.3     1  UNL1        0.0376
      7 C         140.1472  143.5661  159.8766 C.3     1  UNL1        0.0609
      8 C         139.6686  142.1514  160.0157 C.3     1  UNL1        0.0376
      9 C         139.7743  141.4505  161.3375 C.3     1  UNL1        0.0964
     10 H         141.3628  143.1056  164.9338 H       1  UNL1        0.1781
     11 N         140.0415  144.2672  158.5546 N.3     1  UNL1       -0.2736
     12 C         140.7259  145.5858  158.3482 C.3     1  UNL1        0.0758
     13 C         140.6202  146.2868  157.0263 C.3     1  UNL1        0.0609
     14 C         139.8301  145.6691  155.9109 C.3     1  UNL1        0.1687
     15 C         139.1456  144.3504  156.1173 C.3     1  UNL1        0.0609
     16 C         139.2514  143.6495  157.4392 C.3     1  UNL1        0.0758
     17 O         139.7244  146.3701  154.5889 O.3     1  UNL1       -0.4790
     18 C         139.6649  147.8680  154.5370 C.ar    1  UNL1        0.1393
     19 C         138.7863  148.6174  155.4943 C.ar    1  UNL1        0.0378
     20 C         138.7269  150.1153  155.4424 C.ar    1  UNL1        0.0154
     21 C         139.5459  150.8639  154.4330 C.ar    1  UNL1        0.0684
     22 CL        139.4865  152.3617  154.3811 Cl      1  UNL1       -0.0814
     23 C         140.4245  150.1145  153.4756 C.ar    1  UNL1        0.0712
     24 CL        141.2436  150.8630  152.4663 Cl      1  UNL1       -0.0813
     25 C         140.4840  148.6166  153.5276 C.ar    1  UNL1        0.0491
     26 S         141.1544  141.4761  166.3470 S.O2    1  UNL1        0.0768
     27 O         139.7732  141.9400  166.7035 O.2     1  UNL1       -0.1498
     28 O         142.5355  141.0121  165.9906 O.2     1  UNL1       -0.1498
     29 C         141.2601  140.7750  167.6690 C.ar    1  UNL1        0.1253
     30 C         142.4754  139.9559  167.9884 C.ar    1  UNL1        0.0202
     31 C         142.5811  139.2550  169.3103 C.ar    1  UNL1        0.0014
     32 C         141.4716  139.3732  170.3128 C.ar    1  UNL1        0.0001
     33 C         140.2563  140.1923  169.9933 C.ar    1  UNL1        0.0014
     34 C         140.1506  140.8932  168.6714 C.ar    1  UNL1        0.0202
@<TRIPOS>BOND
     1     1     2    2
     2     2     3   am
     3     3    26    1
     4    26    27    2
     5    26    28    2
     6    26    29    1
     7    29    30   ar
     8    30    31   ar
     9    31    32   ar
    10    32    33   ar
    11    33    34   ar
    12     2     4   am
    13     4     5    1
    14     5     6    1
    15     6     7    1
    16     7    11    1
    17    11    12    1
    18    12    13    1
    19    13    14    1
    20    14    17    1
    21    17    18    1
    22    18    19   ar
    23    19    20   ar
    24    20    21   ar
    25    21    22    1
    26    21    23   ar
    27    23    24    1
    28    23    25   ar
    29    14    15    1
    30    15    16    1
    31     7     8    1
    32     8     9    1
    33    34    29   ar
    34     9     4    1
    35    16    11    1
    36    25    18   ar
    37     3    10    1
@<TRIPOS>MOLECULE
*****
 34 37 0 0 0
SMALL
GASTEIGER

@<TRIPOS>ATOM
      1 O         139.5292  140.8036  163.7610 O.2     1  UNL1       -0.2510
      2 C         140.9592  141.2132  163.5680 C.2     1  UNL1        0.3226
      3 N         141.7917  141.6107  164.7508 N.am    1  UNL1       -0.1691
      4 N         141.5568  141.2253  162.1922 N.am    1  UNL1       -0.2629
      5 C         142.9868  141.6349  161.9992 C.3     1  UNL1        0.0964
      6 C         143.5843  141.6470  160.6234 C.3     1  UNL1        0.0376
      7 C         142.7518  141.2495  159.4407 C.3     1  UNL1        0.0609
      8 C         141.3218  140.8399  159.6337 C.3     1  UNL1        0.0376
      9 C         140.7243  140.8278  161.0094 C.3     1  UNL1        0.0964
     10 H         142.7303  141.8795  164.6241 H       1  UNL1        0.1781
     11 N         143.3494  141.2616  158.0648 N.3     1  UNL1       -0.2736
     12 C         143.5813  139.9710  157.3365 C.3     1  UNL1        0.0758
     13 C         144.1788  139.9832  155.9607 C.3     1  UNL1        0.0609
     14 C         144.5445  141.2859  155.3133 C.3     1  UNL1        0.1687
     15 C         144.3126  142.5765  156.0417 C.3     1  UNL1        0.0609
     16 C         143.7150  142.5644  157.4174 C.3     1  UNL1        0.0758
     17 O         145.1421  141.2980  153.9375 O.3     1  UNL1       -0.4790
     18 C         146.4951  141.9053  153.7128 C.ar    1  UNL1        0.1393
     19 C         146.7054  142.8721  152.5854 C.ar    1  UNL1        0.0378
     20 C         148.0585  143.4794  152.3608 C.ar    1  UNL1        0.0154
     21 C         149.2012  143.1198  153.2635 C.ar    1  UNL1        0.0684
     22 CL        150.5542  143.7270  153.0388 Cl      1  UNL1       -0.0814
     23 C         148.9909  142.1530  154.3908 C.ar    1  UNL1        0.0712
     24 CL        150.1336  141.7934  155.2935 Cl      1  UNL1       -0.0813
     25 C         147.6379  141.5457  154.6155 C.ar    1  UNL1        0.0491
     26 S         141.1942  141.5986  166.1266 S.O2    1  UNL1        0.0768
     27 O         141.6558  140.1839  166.3146 O.2     1  UNL1       -0.1498
     28 O         140.7326  143.0133  165.9385 O.2     1  UNL1       -0.1498
     29 C         140.5966  141.5865  167.5024 C.ar    1  UNL1        0.1253
     30 C         139.8611  140.3737  167.9900 C.ar    1  UNL1        0.0202
     31 C         139.2636  140.3617  169.3658 C.ar    1  UNL1        0.0014
     32 C         139.4016  141.5625  170.2540 C.ar    1  UNL1        0.0001
     33 C         140.1372  142.7754  169.7664 C.ar    1  UNL1        0.0014
     34 C         140.7347  142.7874  168.3906 C.ar    1  UNL1        0.0202
@<TRIPOS>BOND
     1     1     2    2
     2     2     3   am
     3     3    26    1
     4    26    27    2
     5    26    28    2
     6    26    29    1
     7    29    30   ar
     8    30    31   ar
     9    31    32   ar
    10    32    33   ar
    11    33    34   ar
    12     2     4   am
    13     4     5    1
    14     5     6    1
    15     6     7    1
    16     7    11    1
    17    11    12    1
    18    12    13    1
    19    13    14    1
    20    14    17    1
    21    17    18    1
    22    18    19   ar
    23    19    20   ar
    24    20    21   ar
    25    21    22    1
    26    21    23   ar
    27    23    24    1
    28    23    25   ar
    29    14    15    1
    30    15    16    1
    31     7     8    1
    32     8     9    1
    33    34    29   ar
    34     9     4    1
    35    16    11    1
    36    25    18   ar
    37     3    10    1
@<TRIPOS>MOLECULE
*****
 34 37 0 0 0
SMALL
GASTEIGER

@<TRIPOS>ATOM
      1 O         140.4987  144.2769  164.4520 O.2     1  UNL1       -0.2510
      2 C         141.0911  143.0648  163.7963 C.2     1  UNL1        0.3226
      3 N         141.2537  141.7940  164.5765 N.am    1  UNL1       -0.1691
      4 N         141.5208  143.1235  162.3603 N.am    1  UNL1       -0.2629
      5 C         142.1131  141.9114  161.7046 C.3     1  UNL1        0.0964
      6 C         142.5428  141.9701  160.2687 C.3     1  UNL1        0.0376
      7 C         142.3802  143.2409  159.4885 C.3     1  UNL1        0.0609
      8 C         141.7878  144.4530  160.1442 C.3     1  UNL1        0.0376
      9 C         141.3581  144.3942  161.5801 C.3     1  UNL1        0.0964
     10 H         141.6425  140.9985  164.1461 H       1  UNL1        0.1781
     11 N         142.8099  143.2996  158.0525 N.3     1  UNL1       -0.2736
     12 C         143.9078  142.4036  157.5610 C.3     1  UNL1        0.0758
     13 C         144.3375  142.4623  156.1251 C.3     1  UNL1        0.0609
     14 C         143.6692  143.4170  155.1807 C.3     1  UNL1        0.1687
     15 C         142.5713  144.3130  155.6722 C.3     1  UNL1        0.0609
     16 C         142.1416  144.2543  157.1081 C.3     1  UNL1        0.0758
     17 O         144.0989  143.4757  153.7447 O.3     1  UNL1       -0.4790
     18 C         145.3971  142.8528  153.3243 C.ar    1  UNL1        0.1393
     19 C         145.4216  141.4428  152.8131 C.ar    1  UNL1        0.0378
     20 C         146.7198  140.8199  152.3927 C.ar    1  UNL1        0.0154
     21 C         147.9934  141.6070  152.4834 C.ar    1  UNL1        0.0684
     22 CL        149.2916  140.9842  152.0630 Cl      1  UNL1       -0.0814
     23 C         147.9689  143.0170  152.9946 C.ar    1  UNL1        0.0712
     24 CL        149.2425  143.8042  153.0853 Cl      1  UNL1       -0.0813
     25 C         146.6708  143.6399  153.4150 C.ar    1  UNL1        0.0491
     26 S         140.8240  141.7353  166.0124 S.O2    1  UNL1        0.0768
     27 O         142.1998  142.1516  166.4411 O.2     1  UNL1       -0.1498
     28 O         139.4482  141.3190  165.5837 O.2     1  UNL1       -0.1498
     29 C         140.3943  141.6766  167.4484 C.ar    1  UNL1        0.1253
     30 C         139.7472  140.4354  167.9874 C.ar    1  UNL1        0.0202
     31 C         139.3175  140.3767  169.4233 C.ar    1  UNL1        0.0014
     32 C         139.5349  141.5592  170.3202 C.ar    1  UNL1        0.0001
     33 C         140.1819  142.8005  169.7811 C.ar    1  UNL1        0.0014
     34 C         140.6116  142.8591  168.3452 C.ar    1  UNL1        0.0202
@<TRIPOS>BOND
     1     1     2    2
     2     2     3   am
     3     3    26    1
     4    26    27    2
     5    26    28    2
     6    26    29    1
     7    29    30   ar
     8    30    31   ar
     9    31    32   ar
    10    32    33   ar
    11    33    34   ar
    12     2     4   am
    13     4     5    1
    14     5     6    1
    15     6     7    1
    16     7    11    1
    17    11    12    1
    18    12    13    1
    19    13    14    1
    20    14    17    1
    21    17    18    1
    22    18    19   ar
    23    19    20   ar
    24    20    21   ar
    25    21    22    1
    26    21    23   ar
    27    23    24    1
    28    23    25   ar
    29    14    15    1
    30    15    16    1
    31     7     8    1
    32     8     9    1
    33    34    29   ar
    34     9     4    1
    35    16    11    1
    36    25    18   ar
    37     3    10    1
@<TRIPOS>MOLECULE
*****
 34 37 0 0 0
SMALL
GASTEIGER

@<TRIPOS>ATOM
      1 O         139.1287  140.7413  163.2469 O.2     1  UNL1       -0.2510
      2 C         140.6016  140.9895  163.1103 C.2     1  UNL1        0.3226
      3 N         141.4546  141.1348  164.3356 N.am    1  UNL1       -0.1691
      4 N         141.2217  141.0923  161.7483 N.am    1  UNL1       -0.2629
      5 C         142.6947  141.3405  161.6116 C.3     1  UNL1        0.0964
      6 C         143.3147  141.4433  160.2497 C.3     1  UNL1        0.0376
      7 C         142.4618  141.2980  159.0244 C.3     1  UNL1        0.0609
      8 C         140.9888  141.0499  159.1610 C.3     1  UNL1        0.0376
      9 C         140.3688  140.9470  160.5230 C.3     1  UNL1        0.0964
     10 H         142.4214  141.2977  164.2459 H       1  UNL1        0.1781
     11 N         143.0819  141.4009  157.6624 N.3     1  UNL1       -0.2736
     12 C         143.4533  140.1566  156.9115 C.3     1  UNL1        0.0758
     13 C         144.0734  140.2595  155.5496 C.3     1  UNL1        0.0609
     14 C         144.3220  141.6067  154.9385 C.3     1  UNL1        0.1687
     15 C         143.9505  142.8509  155.6894 C.3     1  UNL1        0.0609
     16 C         143.3304  142.7480  157.0513 C.3     1  UNL1        0.0758
     17 O         144.9421  141.7095  153.5765 O.3     1  UNL1       -0.4790
     18 C         146.3445  142.2202  153.4276 C.ar    1  UNL1        0.1393
     19 C         146.6418  143.3233  152.4555 C.ar    1  UNL1        0.0378
     20 C         148.0444  143.8340  152.3066 C.ar    1  UNL1        0.0154
     21 C         149.1496  143.2416  153.1297 C.ar    1  UNL1        0.0684
     22 CL        150.5520  143.7523  152.9808 Cl      1  UNL1       -0.0814
     23 C         148.8523  142.1385  154.1018 C.ar    1  UNL1        0.0712
     24 CL        149.9575  141.5461  154.9249 Cl      1  UNL1       -0.0813
     25 C         147.4498  141.6278  154.2507 C.ar    1  UNL1        0.0491
     26 S         140.8346  141.0319  165.6975 S.O2    1  UNL1        0.0768
     27 O         140.5362  142.5017  165.6726 O.2     1  UNL1       -0.1498
     28 O         141.1330  139.5622  165.7224 O.2     1  UNL1       -0.1498
     29 C         140.2145  140.9290  167.0596 C.ar    1  UNL1        0.1253
     30 C         140.5462  141.9438  168.1132 C.ar    1  UNL1        0.0202
     31 C         139.9262  141.8409  169.4751 C.ar    1  UNL1        0.0014
     32 C         138.9745  140.7232  169.7834 C.ar    1  UNL1        0.0001
     33 C         138.6428  139.7084  168.7298 C.ar    1  UNL1        0.0014
     34 C         139.2629  139.8113  167.3679 C.ar    1  UNL1        0.0202
@<TRIPOS>BOND
     1     1     2    2
     2     2     3   am
     3     3    26    1
     4    26    27    2
     5    26    28    2
     6    26    29    1
     7    29    30   ar
     8    30    31   ar
     9    31    32   ar
    10    32    33   ar
    11    33    34   ar
    12     2     4   am
    13     4     5    1
    14     5     6    1
    15     6     7    1
    16     7    11    1
    17    11    12    1
    18    12    13    1
    19    13    14    1
    20    14    17    1
    21    17    18    1
    22    18    19   ar
    23    19    20   ar
    24    20    21   ar
    25    21    22    1
    26    21    23   ar
    27    23    24    1
    28    23    25   ar
    29    14    15    1
    30    15    16    1
    31     7     8    1
    32     8     9    1
    33    34    29   ar
    34     9     4    1
    35    16    11    1
    36    25    18   ar
    37     3    10    1
@<TRIPOS>MOLECULE
*****
 34 37 0 0 0
SMALL
GASTEIGER

@<TRIPOS>ATOM
      1 O         134.1212  139.4861  158.2027 O.2     1  UNL1       -0.2510
      2 C         134.1236  140.0909  156.8300 C.2     1  UNL1        0.3226
      3 N         132.9066  139.9816  155.9601 N.am    1  UNL1       -0.1691
      4 N         135.3432  140.8051  156.3273 N.am    1  UNL1       -0.2629
      5 C         135.3456  141.4099  154.9547 C.3     1  UNL1        0.0964
      6 C         136.5652  142.1241  154.4520 C.3     1  UNL1        0.0376
      7 C         137.7822  142.2334  155.3220 C.3     1  UNL1        0.0609
      8 C         137.7798  141.6286  156.6946 C.3     1  UNL1        0.0376
      9 C         136.5602  140.9144  157.1973 C.3     1  UNL1        0.0964
     10 H         132.9082  140.3786  155.0592 H       1  UNL1        0.1781
     11 N         139.0018  142.9476  154.8192 N.3     1  UNL1       -0.2736
     12 C         139.5805  142.5930  153.4816 C.3     1  UNL1        0.0758
     13 C         140.8000  143.3072  152.9790 C.3     1  UNL1        0.0609
     14 C         141.4408  144.3760  153.8139 C.3     1  UNL1        0.1687
     15 C         140.8620  144.7306  155.1515 C.3     1  UNL1        0.0609
     16 C         139.6425  144.0164  155.6542 C.3     1  UNL1        0.0758
     17 O         142.6603  145.0902  153.3112 O.3     1  UNL1       -0.4790
     18 C         144.0237  144.5233  153.5753 C.ar    1  UNL1        0.1393
     19 C         145.2240  145.1060  152.8899 C.ar    1  UNL1        0.0378
     20 C         146.5874  144.5391  153.1542 C.ar    1  UNL1        0.0154
     21 C         146.7505  143.3895  154.1037 C.ar    1  UNL1        0.0684
     22 CL        148.1138  142.8226  154.3679 Cl      1  UNL1       -0.0814
     23 C         145.5502  142.8067  154.7891 C.ar    1  UNL1        0.0712
     24 CL        145.7133  141.6571  155.7387 Cl      1  UNL1       -0.0813
     25 C         144.1869  143.3736  154.5250 C.ar    1  UNL1        0.0491
     26 S         131.6871  139.2674  156.4628 S.O2    1  UNL1        0.0768
     27 O         132.4510  137.9768  156.4826 O.2     1  UNL1       -0.1498
     28 O         130.9231  140.5581  156.4430 O.2     1  UNL1       -0.1498
     29 C         130.4674  138.5533  156.9654 C.ar    1  UNL1        0.1253
     30 C         129.4714  137.9944  155.9931 C.ar    1  UNL1        0.0202
     31 C         128.2519  137.2803  156.4958 C.ar    1  UNL1        0.0014
     32 C         128.0284  137.1251  157.9709 C.ar    1  UNL1        0.0001
     33 C         129.0244  137.6839  158.9433 C.ar    1  UNL1        0.0014
     34 C         130.2439  138.3980  158.4406 C.ar    1  UNL1        0.0202
@<TRIPOS>BOND
     1     1     2    2
     2     2     3   am
     3     3    26    1
     4    26    27    2
     5    26    28    2
     6    26    29    1
     7    29    30   ar
     8    30    31   ar
     9    31    32   ar
    10    32    33   ar
    11    33    34   ar
    12     2     4   am
    13     4     5    1
    14     5     6    1
    15     6     7    1
    16     7    11    1
    17    11    12    1
    18    12    13    1
    19    13    14    1
    20    14    17    1
    21    17    18    1
    22    18    19   ar
    23    19    20   ar
    24    20    21   ar
    25    21    22    1
    26    21    23   ar
    27    23    24    1
    28    23    25   ar
    29    14    15    1
    30    15    16    1
    31     7     8    1
    32     8     9    1
    33    34    29   ar
    34     9     4    1
    35    16    11    1
    36    25    18   ar
    37     3    10    1
