@<TRIPOS>MOLECULE
*****
 39 43 0 0 0
SMALL
GASTEIGER

@<TRIPOS>ATOM
      1 C         141.6506  144.5647  163.1261 C.3     1  UNL1        0.1297
      2 C         142.2076  144.0901  161.8167 C.3     1  UNL1        0.0324
      3 C         143.5047  143.3378  161.7820 C.3     1  UNL1        0.0208
      4 C         144.2451  143.0599  163.0567 C.3     1  UNL1        0.0844
      5 C         143.6881  143.5345  164.3661 C.3     1  UNL1        0.1577
      6 O         142.3909  144.2869  164.4008 O.3     1  UNL1       -0.3535
      7 C         140.3534  145.3170  163.1609 C.3     1  UNL1        0.0828
      8 N         140.1682  146.5327  162.3018 N.3     1  UNL1       -0.3200
      9 H         139.2345  146.9152  162.4508 H       1  UNL1        0.1189
     10 H         140.2778  146.2757  161.3209 H       1  UNL1        0.1189
     11 C         139.2414  144.8538  164.0547 C.3     1  UNL1        0.0482
     12 C         140.4744  142.3231  167.5654 C.ar    1  UNL1        0.2250
     13 C         140.1036  140.8704  167.6098 C.ar    1  UNL1        0.0593
     14 C         139.3217  140.2612  166.4839 C.ar    1  UNL1        0.0254
     15 C         138.9107  141.1047  165.3137 C.ar    1  UNL1        0.0990
     16 N         138.1289  140.4955  164.1878 N.ar    1  UNL1       -0.2400
     17 C         137.7179  141.3391  163.0176 C.ar    1  UNL1        0.1281
     18 C         138.0887  142.7919  162.9732 C.ar    1  UNL1        0.1567
     19 F         137.6777  143.6354  161.8030 F       1  UNL1       -0.2028
     20 C         138.8706  143.4011  164.0991 C.ar    1  UNL1        0.0274
     21 C         139.2816  142.5574  165.2693 C.ar    1  UNL1        0.1002
     22 N         140.0634  143.1666  166.3952 N.ar    1  UNL1       -0.2104
     23 C         140.5509  143.7253  169.7513 C.3     1  UNL1        0.2542
     24 O         141.2563  142.9323  168.6913 O.3     1  UNL1       -0.4561
     25 N         145.5422  142.3076  163.0220 N.3     1  UNL1       -0.2915
     26 H         146.2187  142.8627  163.5460 H       1  UNL1        0.1236
     27 C         145.6142  140.9113  163.5653 C.3     1  UNL1        0.1152
     28 C         144.3569  140.1173  163.7620 C.ar    1  UNL1        0.0765
     29 C         144.0408  139.5343  165.1074 C.ar    1  UNL1        0.0193
     30 C         142.7835  138.7403  165.3042 C.ar    1  UNL1        0.0411
     31 C         141.8422  138.5293  164.1555 C.ar    1  UNL1        0.1708
     32 C         142.1583  139.1123  162.8100 C.ar    1  UNL1        0.1682
     33 N         143.4156  139.9063  162.6133 N.ar    1  UNL1       -0.2304
     34 N         141.2170  138.9013  161.6613 N.am    1  UNL1       -0.2639
     35 C         139.9597  138.1074  161.8581 C.2     1  UNL1        0.2718
     36 O         139.0185  137.8964  160.7094 O.2     1  UNL1       -0.2707
     37 C         139.6436  137.5243  163.2035 C.3     1  UNL1        0.2898
     38 O         140.5849  137.7353  164.3522 O.3     1  UNL1       -0.4628
     39 H         141.4245  139.2840  160.7783 H       1  UNL1        0.1565
@<TRIPOS>BOND
     1    23    24    1
     2    24    12    1
     3    12    13   ar
     4    13    14   ar
     5    14    15   ar
     6    15    16   ar
     7    16    17   ar
     8    17    18   ar
     9    18    19    1
    10    18    20   ar
    11    20    11    1
    12    11     7    1
    13     7     8    1
    14     7     1    1
    15     1     2    1
    16     2     3    1
    17     3     4    1
    18     4    25    1
    19    25    27    1
    20    27    28    1
    21    28    29   ar
    22    29    30   ar
    23    30    31   ar
    24    31    32   ar
    25    32    33   ar
    26    32    34    1
    27    34    35   am
    28    35    36    2
    29    35    37    1
    30    37    38    1
    31     4     5    1
    32     5     6    1
    33    20    21   ar
    34    21    22   ar
    35    22    12   ar
    36    21    15   ar
    37     6     1    1
    38    33    28   ar
    39    38    31    1
    40     8     9    1
    41     8    10    1
    42    25    26    1
    43    34    39    1
@<TRIPOS>MOLECULE
*****
 39 43 0 0 0
SMALL
GASTEIGER

@<TRIPOS>ATOM
      1 C         143.5601  142.2921  163.4933 C.3     1  UNL1        0.1297
      2 C         142.7138  142.8243  164.6116 C.3     1  UNL1        0.0324
      3 C         141.8754  144.0499  164.3998 C.3     1  UNL1        0.0208
      4 C         141.8832  144.7434  163.0697 C.3     1  UNL1        0.0844
      5 C         142.7294  144.2111  161.9514 C.3     1  UNL1        0.1577
      6 O         143.5679  142.9855  162.1632 O.3     1  UNL1       -0.3535
      7 C         144.3985  141.0665  163.7051 C.3     1  UNL1        0.0828
      8 N         145.8283  141.0484  163.2519 N.3     1  UNL1       -0.3200
      9 H         146.2438  140.1437  163.4737 H       1  UNL1        0.1189
     10 H         146.3457  141.7864  163.7295 H       1  UNL1        0.1189
     11 C         143.8071  139.8589  164.3700 C.3     1  UNL1        0.0482
     12 C         139.7492  139.5730  166.2940 C.ar    1  UNL1        0.2250
     13 C         138.6510  138.8070  165.6179 C.ar    1  UNL1        0.0593
     14 C         138.9054  138.1363  164.3006 C.ar    1  UNL1        0.0254
     15 C         140.2580  138.2315  163.6593 C.ar    1  UNL1        0.0990
     16 N         140.5123  137.5608  162.3419 N.ar    1  UNL1       -0.2400
     17 C         141.8649  137.6561  161.7006 C.ar    1  UNL1        0.1281
     18 C         142.9632  138.4221  162.3766 C.ar    1  UNL1        0.1567
     19 F         144.3158  138.5174  161.7353 F       1  UNL1       -0.2028
     20 C         142.7089  139.0929  163.6940 C.ar    1  UNL1        0.0274
     21 C         141.3562  138.9976  164.3353 C.ar    1  UNL1        0.1002
     22 N         141.1018  139.6683  165.6526 N.ar    1  UNL1       -0.2104
     23 C         140.4685  140.0742  168.7396 C.3     1  UNL1        0.2542
     24 O         139.4949  140.2438  167.6113 O.3     1  UNL1       -0.4561
     25 N         141.0448  145.9690  162.8579 N.3     1  UNL1       -0.2915
     26 H         141.5026  146.5167  162.1294 H       1  UNL1        0.1236
     27 C         139.6056  145.8332  162.4576 C.3     1  UNL1        0.1152
     28 C         139.0066  144.4719  162.2623 C.ar    1  UNL1        0.0765
     29 C         138.2670  143.8096  163.3868 C.ar    1  UNL1        0.0193
     30 C         137.6681  142.4483  163.1915 C.ar    1  UNL1        0.0411
     31 C         137.8087  141.7493  161.8719 C.ar    1  UNL1        0.1708
     32 C         138.5483  142.4115  160.7474 C.ar    1  UNL1        0.1682
     33 N         139.1473  143.7729  160.9426 N.ar    1  UNL1       -0.2304
     34 N         138.6890  141.7125  159.4277 N.am    1  UNL1       -0.2639
     35 C         138.0900  140.3512  159.2325 C.2     1  UNL1        0.2718
     36 O         138.2307  139.6522  157.9128 O.2     1  UNL1       -0.2707
     37 C         137.3504  139.6889  160.3570 C.3     1  UNL1        0.2898
     38 O         137.2098  140.3879  161.6767 O.3     1  UNL1       -0.4628
     39 H         139.1744  142.1472  158.6897 H       1  UNL1        0.1565
@<TRIPOS>BOND
     1    23    24    1
     2    24    12    1
     3    12    13   ar
     4    13    14   ar
     5    14    15   ar
     6    15    16   ar
     7    16    17   ar
     8    17    18   ar
     9    18    19    1
    10    18    20   ar
    11    20    11    1
    12    11     7    1
    13     7     8    1
    14     7     1    1
    15     1     2    1
    16     2     3    1
    17     3     4    1
    18     4    25    1
    19    25    27    1
    20    27    28    1
    21    28    29   ar
    22    29    30   ar
    23    30    31   ar
    24    31    32   ar
    25    32    33   ar
    26    32    34    1
    27    34    35   am
    28    35    36    2
    29    35    37    1
    30    37    38    1
    31     4     5    1
    32     5     6    1
    33    20    21   ar
    34    21    22   ar
    35    22    12   ar
    36    21    15   ar
    37     6     1    1
    38    33    28   ar
    39    38    31    1
    40     8     9    1
    41     8    10    1
    42    25    26    1
    43    34    39    1
@<TRIPOS>MOLECULE
*****
 39 43 0 0 0
SMALL
GASTEIGER

@<TRIPOS>ATOM
      1 C         137.9973  142.8594  162.9753 C.3     1  UNL1        0.1297
      2 C         137.8975  141.8048  164.0373 C.3     1  UNL1        0.0324
      3 C         137.8527  140.3556  163.6532 C.3     1  UNL1        0.0208
      4 C         137.9077  139.9608  162.2070 C.3     1  UNL1        0.0844
      5 C         138.0075  141.0155  161.1450 C.3     1  UNL1        0.1577
      6 O         138.0523  142.4648  161.5292 O.3     1  UNL1       -0.3535
      7 C         138.0422  144.3087  163.3593 C.3     1  UNL1        0.0828
      8 N         137.1276  145.2908  162.6892 N.3     1  UNL1       -0.3200
      9 H         137.2920  146.2228  163.0697 H       1  UNL1        0.1189
     10 H         136.1582  145.0215  162.8564 H       1  UNL1        0.1189
     11 C         139.0015  144.7759  164.4136 C.3     1  UNL1        0.0482
     12 C         140.9439  141.9236  167.3018 C.ar    1  UNL1        0.2250
     13 C         142.4055  141.6102  167.1778 C.ar    1  UNL1        0.0593
     14 C         143.2197  142.2475  166.0911 C.ar    1  UNL1        0.0254
     15 C         142.5722  143.1983  165.1284 C.ar    1  UNL1        0.0990
     16 N         143.3864  143.8356  164.0416 N.ar    1  UNL1       -0.2400
     17 C         142.7390  144.7863  163.0789 C.ar    1  UNL1        0.1281
     18 C         141.2773  145.0998  163.2029 C.ar    1  UNL1        0.1567
     19 F         140.6299  146.0505  162.2402 F       1  UNL1       -0.2028
     20 C         140.4631  144.4625  164.2896 C.ar    1  UNL1        0.0274
     21 C         141.1106  143.5117  165.2524 C.ar    1  UNL1        0.1002
     22 N         140.2965  142.8744  166.3391 N.ar    1  UNL1       -0.2104
     23 C         139.4642  139.9635  168.1494 C.3     1  UNL1        0.2542
     24 O         140.1297  141.2863  168.3885 O.3     1  UNL1       -0.4561
     25 N         137.8629  138.5116  161.8229 N.3     1  UNL1       -0.2915
     26 H         137.2892  138.4474  160.9821 H       1  UNL1        0.1236
     27 C         139.1360  137.7720  161.5360 C.3     1  UNL1        0.1152
     28 C         140.3658  138.0530  162.3474 C.ar    1  UNL1        0.0765
     29 C         140.5988  137.3192  163.6348 C.ar    1  UNL1        0.0193
     30 C         141.8287  137.6002  164.4463 C.ar    1  UNL1        0.0411
     31 C         142.8256  138.6150  163.9704 C.ar    1  UNL1        0.1708
     32 C         142.5926  139.3488  162.6831 C.ar    1  UNL1        0.1682
     33 N         141.3627  139.0678  161.8715 N.ar    1  UNL1       -0.2304
     34 N         143.5895  140.3635  162.2072 N.am    1  UNL1       -0.2639
     35 C         144.8193  140.6445  163.0186 C.2     1  UNL1        0.2718
     36 O         145.8162  141.6593  162.5427 O.2     1  UNL1       -0.2707
     37 C         145.0523  139.9107  164.3060 C.3     1  UNL1        0.2898
     38 O         144.0554  138.8960  164.7819 O.3     1  UNL1       -0.4628
     39 H         143.4365  140.8451  161.3623 H       1  UNL1        0.1565
@<TRIPOS>BOND
     1    23    24    1
     2    24    12    1
     3    12    13   ar
     4    13    14   ar
     5    14    15   ar
     6    15    16   ar
     7    16    17   ar
     8    17    18   ar
     9    18    19    1
    10    18    20   ar
    11    20    11    1
    12    11     7    1
    13     7     8    1
    14     7     1    1
    15     1     2    1
    16     2     3    1
    17     3     4    1
    18     4    25    1
    19    25    27    1
    20    27    28    1
    21    28    29   ar
    22    29    30   ar
    23    30    31   ar
    24    31    32   ar
    25    32    33   ar
    26    32    34    1
    27    34    35   am
    28    35    36    2
    29    35    37    1
    30    37    38    1
    31     4     5    1
    32     5     6    1
    33    20    21   ar
    34    21    22   ar
    35    22    12   ar
    36    21    15   ar
    37     6     1    1
    38    33    28   ar
    39    38    31    1
    40     8     9    1
    41     8    10    1
    42    25    26    1
    43    34    39    1
@<TRIPOS>MOLECULE
*****
 39 43 0 0 0
SMALL
GASTEIGER

@<TRIPOS>ATOM
      1 C         138.1685  140.0604  162.7337 C.3     1  UNL1        0.1297
      2 C         137.9106  140.8395  163.9893 C.3     1  UNL1        0.0324
      3 C         137.7510  142.3297  163.9278 C.3     1  UNL1        0.0208
      4 C         137.8493  143.0408  162.6107 C.3     1  UNL1        0.0844
      5 C         138.1072  142.2617  161.3551 C.3     1  UNL1        0.1577
      6 O         138.2668  140.7714  161.4167 O.3     1  UNL1       -0.3535
      7 C         138.3281  138.5702  162.7952 C.3     1  UNL1        0.0828
      8 N         137.7232  137.7065  161.7284 N.3     1  UNL1       -0.3200
      9 H         137.9282  136.7272  161.9270 H       1  UNL1        0.1189
     10 H         138.1172  137.9593  160.8222 H       1  UNL1        0.1189
     11 C         139.0927  137.9437  163.9235 C.3     1  UNL1        0.0482
     12 C         140.2780  139.9480  167.7742 C.ar    1  UNL1        0.2250
     13 C         141.7094  140.3279  168.0122 C.ar    1  UNL1        0.0593
     14 C         142.7458  140.0396  166.9668 C.ar    1  UNL1        0.0254
     15 C         142.3506  139.3715  165.6833 C.ar    1  UNL1        0.0990
     16 N         143.3870  139.0833  164.6378 N.ar    1  UNL1       -0.2400
     17 C         142.9919  138.4152  163.3543 C.ar    1  UNL1        0.1281
     18 C         141.5604  138.0353  163.1161 C.ar    1  UNL1        0.1567
     19 F         141.1653  137.3672  161.8326 F       1  UNL1       -0.2028
     20 C         140.5241  138.3236  164.1616 C.ar    1  UNL1        0.0274
     21 C         140.9192  138.9917  165.4452 C.ar    1  UNL1        0.1002
     22 N         139.8829  139.2799  166.4906 N.ar    1  UNL1       -0.2104
     23 C         139.6410  140.3454  170.2614 C.3     1  UNL1        0.2542
     24 O         139.2417  140.2363  168.8196 O.3     1  UNL1       -0.4561
     25 N         137.6896  144.5310  162.5492 N.3     1  UNL1       -0.2915
     26 H         137.0506  144.7900  163.3008 H       1  UNL1        0.1236
     27 C         138.8911  145.4199  162.6769 C.3     1  UNL1        0.1152
     28 C         140.2674  144.8236  162.6881 C.ar    1  UNL1        0.0765
     29 C         140.9803  144.6070  163.9901 C.ar    1  UNL1        0.0193
     30 C         142.3566  144.0107  164.0014 C.ar    1  UNL1        0.0411
     31 C         143.0201  143.6310  162.7108 C.ar    1  UNL1        0.1708
     32 C         142.3073  143.8476  161.4089 C.ar    1  UNL1        0.1682
     33 N         140.9309  144.4439  161.3976 N.ar    1  UNL1       -0.2304
     34 N         142.9708  143.4679  160.1183 N.am    1  UNL1       -0.2639
     35 C         144.3471  142.8716  160.1296 C.2     1  UNL1        0.2718
     36 O         145.0106  142.4920  158.8390 O.2     1  UNL1       -0.2707
     37 C         145.0600  142.6550  161.4315 C.3     1  UNL1        0.2898
     38 O         144.3965  143.0347  162.7221 O.3     1  UNL1       -0.4628
     39 H         142.5029  143.6101  159.2638 H       1  UNL1        0.1565
@<TRIPOS>BOND
     1    23    24    1
     2    24    12    1
     3    12    13   ar
     4    13    14   ar
     5    14    15   ar
     6    15    16   ar
     7    16    17   ar
     8    17    18   ar
     9    18    19    1
    10    18    20   ar
    11    20    11    1
    12    11     7    1
    13     7     8    1
    14     7     1    1
    15     1     2    1
    16     2     3    1
    17     3     4    1
    18     4    25    1
    19    25    27    1
    20    27    28    1
    21    28    29   ar
    22    29    30   ar
    23    30    31   ar
    24    31    32   ar
    25    32    33   ar
    26    32    34    1
    27    34    35   am
    28    35    36    2
    29    35    37    1
    30    37    38    1
    31     4     5    1
    32     5     6    1
    33    20    21   ar
    34    21    22   ar
    35    22    12   ar
    36    21    15   ar
    37     6     1    1
    38    33    28   ar
    39    38    31    1
    40     8     9    1
    41     8    10    1
    42    25    26    1
    43    34    39    1
@<TRIPOS>MOLECULE
*****
 39 43 0 0 0
SMALL
GASTEIGER

@<TRIPOS>ATOM
      1 C         143.0085  141.3479  166.2022 C.3     1  UNL1        0.1297
      2 C         143.2892  142.0643  164.9146 C.3     1  UNL1        0.0324
      3 C         143.8227  141.3061  163.7354 C.3     1  UNL1        0.0208
      4 C         144.0755  139.8315  163.8437 C.3     1  UNL1        0.0844
      5 C         143.7947  139.1151  165.1313 C.3     1  UNL1        0.1577
      6 O         143.2612  139.8733  166.3106 O.3     1  UNL1       -0.3535
      7 C         142.4750  142.1060  167.3814 C.3     1  UNL1        0.0828
      8 N         143.4099  142.5762  168.4560 N.3     1  UNL1       -0.3200
      9 H         142.8808  143.0700  169.1748 H       1  UNL1        0.1189
     10 H         144.1035  143.2055  168.0519 H       1  UNL1        0.1189
     11 C         141.0066  142.3940  167.4860 C.3     1  UNL1        0.0482
     12 C         138.9735  143.8552  163.7468 C.ar    1  UNL1        0.2250
     13 C         137.9848  142.9772  163.0387 C.ar    1  UNL1        0.0593
     14 C         137.6737  141.6121  163.5770 C.ar    1  UNL1        0.0254
     15 C         138.3513  141.1250  164.8234 C.ar    1  UNL1        0.0990
     16 N         138.0402  139.7599  165.3617 N.ar    1  UNL1       -0.2400
     17 C         138.7179  139.2728  166.6080 C.ar    1  UNL1        0.1281
     18 C         139.7067  140.1509  167.3162 C.ar    1  UNL1        0.1567
     19 F         140.3844  139.6638  168.5626 F       1  UNL1       -0.2028
     20 C         140.0178  141.5160  166.7779 C.ar    1  UNL1        0.0274
     21 C         139.3401  142.0030  165.5315 C.ar    1  UNL1        0.1002
     22 N         139.6512  143.3681  164.9932 N.ar    1  UNL1       -0.2104
     23 C         140.6060  145.4833  162.5493 C.3     1  UNL1        0.2542
     24 O         139.2846  145.2203  163.2085 O.3     1  UNL1       -0.4561
     25 N         144.6089  139.0734  162.6645 N.3     1  UNL1       -0.2915
     26 H         145.4652  138.6131  162.9733 H       1  UNL1        0.1236
     27 C         143.7661  138.0224  162.0048 C.3     1  UNL1        0.1152
     28 C         142.2862  138.2251  161.8674 C.ar    1  UNL1        0.0765
     29 C         141.3456  137.5589  162.8275 C.ar    1  UNL1        0.0193
     30 C         139.8658  137.7616  162.6900 C.ar    1  UNL1        0.0411
     31 C         139.3264  138.6303  161.5926 C.ar    1  UNL1        0.1708
     32 C         140.2670  139.2964  160.6325 C.ar    1  UNL1        0.1682
     33 N         141.7469  139.0938  160.7699 N.ar    1  UNL1       -0.2304
     34 N         139.7276  140.1651  159.5351 N.am    1  UNL1       -0.2639
     35 C         138.2478  140.3677  159.3976 C.2     1  UNL1        0.2718
     36 O         137.7084  141.2365  158.3002 O.2     1  UNL1       -0.2707
     37 C         137.3072  139.7016  160.3577 C.3     1  UNL1        0.2898
     38 O         137.8465  138.8329  161.4551 O.3     1  UNL1       -0.4628
     39 H         140.3449  140.6023  158.9050 H       1  UNL1        0.1565
@<TRIPOS>BOND
     1    23    24    1
     2    24    12    1
     3    12    13   ar
     4    13    14   ar
     5    14    15   ar
     6    15    16   ar
     7    16    17   ar
     8    17    18   ar
     9    18    19    1
    10    18    20   ar
    11    20    11    1
    12    11     7    1
    13     7     8    1
    14     7     1    1
    15     1     2    1
    16     2     3    1
    17     3     4    1
    18     4    25    1
    19    25    27    1
    20    27    28    1
    21    28    29   ar
    22    29    30   ar
    23    30    31   ar
    24    31    32   ar
    25    32    33   ar
    26    32    34    1
    27    34    35   am
    28    35    36    2
    29    35    37    1
    30    37    38    1
    31     4     5    1
    32     5     6    1
    33    20    21   ar
    34    21    22   ar
    35    22    12   ar
    36    21    15   ar
    37     6     1    1
    38    33    28   ar
    39    38    31    1
    40     8     9    1
    41     8    10    1
    42    25    26    1
    43    34    39    1
@<TRIPOS>MOLECULE
*****
 39 43 0 0 0
SMALL
GASTEIGER

@<TRIPOS>ATOM
      1 C         139.6578  143.6496  163.3890 C.3     1  UNL1        0.1297
      2 C         140.0532  143.1945  164.7625 C.3     1  UNL1        0.0324
      3 C         141.4901  143.2567  165.1886 C.3     1  UNL1        0.0208
      4 C         142.5316  143.7740  164.2411 C.3     1  UNL1        0.0844
      5 C         142.1362  144.2291  162.8676 C.3     1  UNL1        0.1577
      6 O         140.6993  144.1669  162.4416 O.3     1  UNL1       -0.3535
      7 C         138.2210  143.5874  162.9630 C.3     1  UNL1        0.0828
      8 N         137.5104  144.8377  162.5364 N.3     1  UNL1       -0.3200
      9 H         136.5486  144.6123  162.2822 H       1  UNL1        0.1189
     10 H         137.9887  145.2429  161.7318 H       1  UNL1        0.1189
     11 C         137.4947  142.2750  162.9635 C.3     1  UNL1        0.0482
     12 C         138.6396  138.8725  165.6768 C.ar    1  UNL1        0.2250
     13 C         139.2988  137.6503  165.1098 C.ar    1  UNL1        0.0593
     14 C         139.5764  137.5622  163.6384 C.ar    1  UNL1        0.0254
     15 C         139.1948  138.6963  162.7339 C.ar    1  UNL1        0.0990
     16 N         139.4724  138.6082  161.2625 N.ar    1  UNL1       -0.2400
     17 C         139.0908  139.7424  160.3580 C.ar    1  UNL1        0.1281
     18 C         138.4315  140.9647  160.9250 C.ar    1  UNL1        0.1567
     19 F         138.0499  142.0988  160.0206 F       1  UNL1       -0.2028
     20 C         138.1539  141.0528  162.3965 C.ar    1  UNL1        0.0274
     21 C         138.5356  139.9185  163.3009 C.ar    1  UNL1        0.1002
     22 N         138.2579  140.0066  164.7724 N.ar    1  UNL1       -0.2104
     23 C         139.2071  139.8418  168.0195 C.3     1  UNL1        0.2542
     24 O         138.3619  138.9606  167.1483 O.3     1  UNL1       -0.4561
     25 N         143.9684  143.8362  164.6672 N.3     1  UNL1       -0.2915
     26 H         143.9768  144.1886  165.6243 H       1  UNL1        0.1236
     27 C         144.8085  142.5936  164.6560 C.3     1  UNL1        0.1152
     28 C         144.3159  141.3615  163.9564 C.ar    1  UNL1        0.0765
     29 C         143.8078  140.1980  164.7552 C.ar    1  UNL1        0.0193
     30 C         143.3152  138.9659  164.0556 C.ar    1  UNL1        0.0411
     31 C         143.3307  138.8974  162.5573 C.ar    1  UNL1        0.1708
     32 C         143.8388  140.0609  161.7585 C.ar    1  UNL1        0.1682
     33 N         144.3314  141.2930  162.4581 N.ar    1  UNL1       -0.2304
     34 N         143.8543  139.9923  160.2601 N.am    1  UNL1       -0.2639
     35 C         143.3618  138.7603  159.5606 C.2     1  UNL1        0.2718
     36 O         143.3773  138.6918  158.0622 O.2     1  UNL1       -0.2707
     37 C         142.8536  137.5967  160.3594 C.3     1  UNL1        0.2898
     38 O         142.8381  137.6653  161.8577 O.3     1  UNL1       -0.4628
     39 H         144.1878  140.7560  159.7359 H       1  UNL1        0.1565
@<TRIPOS>BOND
     1    23    24    1
     2    24    12    1
     3    12    13   ar
     4    13    14   ar
     5    14    15   ar
     6    15    16   ar
     7    16    17   ar
     8    17    18   ar
     9    18    19    1
    10    18    20   ar
    11    20    11    1
    12    11     7    1
    13     7     8    1
    14     7     1    1
    15     1     2    1
    16     2     3    1
    17     3     4    1
    18     4    25    1
    19    25    27    1
    20    27    28    1
    21    28    29   ar
    22    29    30   ar
    23    30    31   ar
    24    31    32   ar
    25    32    33   ar
    26    32    34    1
    27    34    35   am
    28    35    36    2
    29    35    37    1
    30    37    38    1
    31     4     5    1
    32     5     6    1
    33    20    21   ar
    34    21    22   ar
    35    22    12   ar
    36    21    15   ar
    37     6     1    1
    38    33    28   ar
    39    38    31    1
    40     8     9    1
    41     8    10    1
    42    25    26    1
    43    34    39    1
@<TRIPOS>MOLECULE
*****
 39 43 0 0 0
SMALL
GASTEIGER

@<TRIPOS>ATOM
      1 C         140.8060  144.7269  162.1719 C.3     1  UNL1        0.1297
      2 C         141.7797  145.3098  163.1527 C.3     1  UNL1        0.0324
      3 C         143.1920  144.8063  163.1969 C.3     1  UNL1        0.0208
      4 C         143.6306  143.7199  162.2601 C.3     1  UNL1        0.0844
      5 C         142.6568  143.1370  161.2793 C.3     1  UNL1        0.1577
      6 O         141.2445  143.6405  161.2352 O.3     1  UNL1       -0.3535
      7 C         139.3937  145.2304  162.1278 C.3     1  UNL1        0.0828
      8 N         139.0691  146.4885  161.3783 N.3     1  UNL1       -0.3200
      9 H         138.0702  146.6807  161.4532 H       1  UNL1        0.1189
     10 H         139.3206  146.3739  160.3965 H       1  UNL1        0.1189
     11 C         138.3060  144.4757  162.8331 C.3     1  UNL1        0.0482
     12 C         137.8034  140.2399  161.3995 C.ar    1  UNL1        0.2250
     13 C         138.1503  139.0956  162.3050 C.ar    1  UNL1        0.0593
     14 C         138.6647  139.3631  163.6884 C.ar    1  UNL1        0.0254
     15 C         138.8323  140.7750  164.1663 C.ar    1  UNL1        0.0990
     16 N         139.3467  141.0425  165.5497 N.ar    1  UNL1       -0.2400
     17 C         139.5142  142.4544  166.0276 C.ar    1  UNL1        0.1281
     18 C         139.1673  143.5989  165.1221 C.ar    1  UNL1        0.1567
     19 F         139.3349  145.0107  165.5999 F       1  UNL1       -0.2028
     20 C         138.6529  143.3313  163.7387 C.ar    1  UNL1        0.0274
     21 C         138.4854  141.9193  163.2608 C.ar    1  UNL1        0.1002
     22 N         137.9709  141.6518  161.8774 N.ar    1  UNL1       -0.2104
     23 C         138.1033  140.3746  158.8223 C.3     1  UNL1        0.2542
     24 O         137.2890  139.9724  160.0161 O.3     1  UNL1       -0.4561
     25 N         145.0428  143.2164  162.3043 N.3     1  UNL1       -0.2915
     26 H         145.5673  143.8620  162.8946 H       1  UNL1        0.1236
     27 C         145.3309  141.8345  162.8114 C.3     1  UNL1        0.1152
     28 C         144.4822  141.2419  163.8970 C.ar    1  UNL1        0.0765
     29 C         143.9440  139.8492  163.7524 C.ar    1  UNL1        0.0193
     30 C         143.0954  139.2566  164.8380 C.ar    1  UNL1        0.0411
     31 C         142.7848  140.0567  166.0682 C.ar    1  UNL1        0.1708
     32 C         143.3229  141.4493  166.2129 C.ar    1  UNL1        0.1682
     33 N         144.1716  142.0420  165.1273 N.ar    1  UNL1       -0.2304
     34 N         143.0123  142.2494  167.4431 N.am    1  UNL1       -0.2639
     35 C         142.1636  141.6568  168.5287 C.2     1  UNL1        0.2718
     36 O         141.8530  142.4569  169.7589 O.2     1  UNL1       -0.2707
     37 C         141.6255  140.2641  168.3841 C.3     1  UNL1        0.2898
     38 O         141.9360  139.4641  167.1539 O.3     1  UNL1       -0.4628
     39 H         143.3655  143.1635  167.5380 H       1  UNL1        0.1565
@<TRIPOS>BOND
     1    23    24    1
     2    24    12    1
     3    12    13   ar
     4    13    14   ar
     5    14    15   ar
     6    15    16   ar
     7    16    17   ar
     8    17    18   ar
     9    18    19    1
    10    18    20   ar
    11    20    11    1
    12    11     7    1
    13     7     8    1
    14     7     1    1
    15     1     2    1
    16     2     3    1
    17     3     4    1
    18     4    25    1
    19    25    27    1
    20    27    28    1
    21    28    29   ar
    22    29    30   ar
    23    30    31   ar
    24    31    32   ar
    25    32    33   ar
    26    32    34    1
    27    34    35   am
    28    35    36    2
    29    35    37    1
    30    37    38    1
    31     4     5    1
    32     5     6    1
    33    20    21   ar
    34    21    22   ar
    35    22    12   ar
    36    21    15   ar
    37     6     1    1
    38    33    28   ar
    39    38    31    1
    40     8     9    1
    41     8    10    1
    42    25    26    1
    43    34    39    1
@<TRIPOS>MOLECULE
*****
 39 43 0 0 0
SMALL
GASTEIGER

@<TRIPOS>ATOM
      1 C         142.0848  138.4862  163.7780 C.3     1  UNL1        0.1297
      2 C         142.2677  138.9643  162.3680 C.3     1  UNL1        0.0324
      3 C         143.4438  139.8256  162.0148 C.3     1  UNL1        0.0208
      4 C         144.4371  140.2089  163.0715 C.3     1  UNL1        0.0844
      5 C         144.2542  139.7308  164.4814 C.3     1  UNL1        0.1577
      6 O         143.0780  138.8694  164.8347 O.3     1  UNL1       -0.3535
      7 C         140.9087  137.6249  164.1312 C.3     1  UNL1        0.0828
      8 N         140.9768  136.1408  163.9241 N.3     1  UNL1       -0.3200
      9 H         140.0963  135.7161  164.2154 H       1  UNL1        0.1189
     10 H         141.7405  135.7548  164.4792 H       1  UNL1        0.1189
     11 C         139.6643  138.2477  164.6915 C.3     1  UNL1        0.0482
     12 C         139.9074  142.5223  166.0764 C.ar    1  UNL1        0.2250
     13 C         139.1981  143.6000  165.3113 C.ar    1  UNL1        0.0593
     14 C         138.4078  143.2529  164.0846 C.ar    1  UNL1        0.0254
     15 C         138.3267  141.8280  163.6230 C.ar    1  UNL1        0.0990
     16 N         137.5364  141.4808  162.3963 N.ar    1  UNL1       -0.2400
     17 C         137.4554  140.0560  161.9346 C.ar    1  UNL1        0.1281
     18 C         138.1647  138.9782  162.6997 C.ar    1  UNL1        0.1567
     19 F         138.0837  137.5533  162.2381 F       1  UNL1       -0.2028
     20 C         138.9550  139.3254  163.9265 C.ar    1  UNL1        0.0274
     21 C         139.0360  140.7503  164.3881 C.ar    1  UNL1        0.1002
     22 N         139.8264  141.0975  165.6148 N.ar    1  UNL1       -0.2104
     23 C         140.3571  142.2355  168.6191 C.3     1  UNL1        0.2542
     24 O         140.6978  142.8695  167.3031 O.3     1  UNL1       -0.4561
     25 N         145.6132  141.0702  162.7182 N.3     1  UNL1       -0.2915
     26 H         145.7129  141.0309  161.7039 H       1  UNL1        0.1236
     27 C         145.6212  142.5212  163.0982 C.3     1  UNL1        0.1152
     28 C         144.3557  143.3230  163.0239 C.ar    1  UNL1        0.0765
     29 C         143.7304  143.8556  164.2792 C.ar    1  UNL1        0.0193
     30 C         142.4649  144.6573  164.2049 C.ar    1  UNL1        0.0411
     31 C         141.8245  144.9265  162.8754 C.ar    1  UNL1        0.1708
     32 C         142.4497  144.3940  161.6203 C.ar    1  UNL1        0.1682
     33 N         143.7153  143.5922  161.6945 N.ar    1  UNL1       -0.2304
     34 N         141.8093  144.6632  160.2908 N.am    1  UNL1       -0.2639
     35 C         140.5437  145.4649  160.2165 C.2     1  UNL1        0.2718
     36 O         139.9034  145.7341  158.8871 O.2     1  UNL1       -0.2707
     37 C         139.9185  145.9975  161.4718 C.3     1  UNL1        0.2898
     38 O         140.5589  145.7283  162.8012 O.3     1  UNL1       -0.4628
     39 H         142.2196  144.3136  159.4670 H       1  UNL1        0.1565
@<TRIPOS>BOND
     1    23    24    1
     2    24    12    1
     3    12    13   ar
     4    13    14   ar
     5    14    15   ar
     6    15    16   ar
     7    16    17   ar
     8    17    18   ar
     9    18    19    1
    10    18    20   ar
    11    20    11    1
    12    11     7    1
    13     7     8    1
    14     7     1    1
    15     1     2    1
    16     2     3    1
    17     3     4    1
    18     4    25    1
    19    25    27    1
    20    27    28    1
    21    28    29   ar
    22    29    30   ar
    23    30    31   ar
    24    31    32   ar
    25    32    33   ar
    26    32    34    1
    27    34    35   am
    28    35    36    2
    29    35    37    1
    30    37    38    1
    31     4     5    1
    32     5     6    1
    33    20    21   ar
    34    21    22   ar
    35    22    12   ar
    36    21    15   ar
    37     6     1    1
    38    33    28   ar
    39    38    31    1
    40     8     9    1
    41     8    10    1
    42    25    26    1
    43    34    39    1
@<TRIPOS>MOLECULE
*****
 39 43 0 0 0
SMALL
GASTEIGER

@<TRIPOS>ATOM
      1 C         143.9746  142.2593  163.9091 C.3     1  UNL1        0.1297
      2 C         143.5800  143.1338  162.7561 C.3     1  UNL1        0.0324
      3 C         142.4331  144.0900  162.8982 C.3     1  UNL1        0.0208
      4 C         141.6809  144.1718  164.1934 C.3     1  UNL1        0.0844
      5 C         142.0755  143.2973  165.3465 C.3     1  UNL1        0.1577
      6 O         143.2225  142.3410  165.2043 O.3     1  UNL1       -0.3535
      7 C         145.1215  141.3030  163.7670 C.3     1  UNL1        0.0828
      8 N         146.4360  141.7833  163.2273 N.3     1  UNL1       -0.3200
      9 H         147.0964  141.0064  163.1995 H       1  UNL1        0.1189
     10 H         146.8026  142.5197  163.8304 H       1  UNL1        0.1189
     11 C         144.9538  139.8663  164.1645 C.3     1  UNL1        0.0482
     12 C         143.3308  139.0963  160.0387 C.ar    1  UNL1        0.2250
     13 C         142.0019  138.4215  159.8694 C.ar    1  UNL1        0.0593
     14 C         141.2141  138.0033  161.0753 C.ar    1  UNL1        0.0254
     15 C         141.7550  138.2600  162.4506 C.ar    1  UNL1        0.0990
     16 N         140.9672  137.8418  163.6566 N.ar    1  UNL1       -0.2400
     17 C         141.5082  138.0984  165.0319 C.ar    1  UNL1        0.1281
     18 C         142.8371  138.7733  165.2012 C.ar    1  UNL1        0.1567
     19 F         143.3781  139.0300  166.5765 F       1  UNL1       -0.2028
     20 C         143.6249  139.1915  163.9952 C.ar    1  UNL1        0.0274
     21 C         143.0839  138.9348  162.6199 C.ar    1  UNL1        0.1002
     22 N         143.8718  139.3530  161.4139 N.ar    1  UNL1       -0.2104
     23 C         144.0909  140.9433  158.3771 C.3     1  UNL1        0.2542
     24 O         144.1187  139.5145  158.8327 O.3     1  UNL1       -0.4561
     25 N         140.5340  145.1281  164.3356 N.3     1  UNL1       -0.2915
     26 H         140.5453  145.7262  163.5094 H       1  UNL1        0.1236
     27 C         139.1346  144.6058  164.4730 C.3     1  UNL1        0.1152
     28 C         138.7791  143.2584  163.9181 C.ar    1  UNL1        0.0765
     29 C         138.5051  142.1131  164.8474 C.ar    1  UNL1        0.0193
     30 C         138.1496  140.7657  164.2926 C.ar    1  UNL1        0.0411
     31 C         138.0681  140.5633  162.8085 C.ar    1  UNL1        0.1708
     32 C         138.3421  141.7085  161.8793 C.ar    1  UNL1        0.1682
     33 N         138.6976  143.0560  162.4341 N.ar    1  UNL1       -0.2304
     34 N         138.2606  141.5061  160.3952 N.am    1  UNL1       -0.2639
     35 C         137.9051  140.1587  159.8404 C.2     1  UNL1        0.2718
     36 O         137.8236  139.9563  158.3564 O.2     1  UNL1       -0.2707
     37 C         137.6311  139.0134  160.7697 C.3     1  UNL1        0.2898
     38 O         137.7126  139.2157  162.2537 O.3     1  UNL1       -0.4628
     39 H         138.4404  142.2577  159.7853 H       1  UNL1        0.1565
@<TRIPOS>BOND
     1    23    24    1
     2    24    12    1
     3    12    13   ar
     4    13    14   ar
     5    14    15   ar
     6    15    16   ar
     7    16    17   ar
     8    17    18   ar
     9    18    19    1
    10    18    20   ar
    11    20    11    1
    12    11     7    1
    13     7     8    1
    14     7     1    1
    15     1     2    1
    16     2     3    1
    17     3     4    1
    18     4    25    1
    19    25    27    1
    20    27    28    1
    21    28    29   ar
    22    29    30   ar
    23    30    31   ar
    24    31    32   ar
    25    32    33   ar
    26    32    34    1
    27    34    35   am
    28    35    36    2
    29    35    37    1
    30    37    38    1
    31     4     5    1
    32     5     6    1
    33    20    21   ar
    34    21    22   ar
    35    22    12   ar
    36    21    15   ar
    37     6     1    1
    38    33    28   ar
    39    38    31    1
    40     8     9    1
    41     8    10    1
    42    25    26    1
    43    34    39    1
