@<TRIPOS>MOLECULE
*****
 31 33 0 0 0
SMALL
GASTEIGER

@<TRIPOS>ATOM
      1 C         142.2174  144.0512  161.7636 C.ar    1  UNL1        0.0518
      2 C         143.2035  144.7407  162.6592 C.ar    1  UNL1        0.0148
      3 C         143.2042  144.4579  164.1323 C.ar    1  UNL1        0.0025
      4 C         142.2189  143.4855  164.7098 C.ar    1  UNL1        0.0148
      5 C         141.2328  142.7959  163.8142 C.ar    1  UNL1        0.0518
      6 C         141.2320  143.0787  162.3412 C.ar    1  UNL1        0.0293
      7 C         141.1141  145.1506  159.6842 C.2     1  UNL1        0.2495
      8 O         140.0124  145.6845  160.5510 O.2     1  UNL1       -0.2698
      9 N         142.2166  144.3340  160.2905 N.am    1  UNL1       -0.2803
     10 H         142.9396  143.9836  159.7216 H       1  UNL1        0.1552
     11 C         138.8817  147.3082  155.5175 C.3     1  UNL1        0.0310
     12 C         139.9971  146.5123  156.1277 C.ar    1  UNL1       -0.0217
     13 C         141.1116  145.9991  155.2649 C.ar    1  UNL1       -0.0043
     14 C         142.2270  145.2032  155.8752 C.ar    1  UNL1       -0.0002
     15 C         142.2278  144.9203  157.3482 C.ar    1  UNL1        0.0045
     16 C         141.1133  145.4335  158.2110 C.ar    1  UNL1        0.0534
     17 C         139.9979  146.2294  157.6008 C.ar    1  UNL1        0.0003
     18 N         140.2475  141.8235  164.3917 N.am    1  UNL1       -0.2804
     19 C         140.7106  140.4765  164.8619 C.2     1  UNL1        0.2495
     20 O         142.1592  140.1019  164.7546 O.2     1  UNL1       -0.2698
     21 H         139.2968  142.0693  164.4621 H       1  UNL1        0.1552
     22 C         139.7253  139.5041  165.4394 C.ar    1  UNL1        0.0576
     23 C         138.9603  139.8590  166.6800 C.ar    1  UNL1        0.0045
     24 C         137.9750  138.8866  167.2575 C.ar    1  UNL1        0.0001
     25 C         137.7547  137.5592  166.5944 C.ar    1  UNL1       -0.0001
     26 C         138.5196  137.2043  165.3540 C.ar    1  UNL1        0.0040
     27 C         139.5050  138.1767  164.7765 C.ar    1  UNL1        0.0758
     28 C         140.2699  137.8218  163.5360 C.3     1  UNL1        0.4187
     29 F         141.0350  137.4669  162.2955 F       1  UNL1       -0.1659
     30 F         141.2886  137.1028  164.3699 F       1  UNL1       -0.1659
     31 F         139.2513  138.5408  162.7021 F       1  UNL1       -0.1659
@<TRIPOS>BOND
     1    11    12    1
     2    12    13   ar
     3    13    14   ar
     4    14    15   ar
     5    15    16   ar
     6    16     7    1
     7     7     8    2
     8     7     9   am
     9     9     1    1
    10     1     2   ar
    11     2     3   ar
    12     3     4   ar
    13     4     5   ar
    14     5    18    1
    15    18    19   am
    16    19    20    2
    17    19    22    1
    18    22    23   ar
    19    23    24   ar
    20    24    25   ar
    21    25    26   ar
    22    26    27   ar
    23    27    28    1
    24    28    29    1
    25    28    30    1
    26    28    31    1
    27     5     6   ar
    28    16    17   ar
    29    17    12   ar
    30     6     1   ar
    31    27    22   ar
    32     9    10    1
    33    18    21    1
@<TRIPOS>MOLECULE
*****
 31 33 0 0 0
SMALL
GASTEIGER

@<TRIPOS>ATOM
      1 C         143.8985  142.5867  161.7843 C.ar    1  UNL1        0.0518
      2 C         144.2039  143.8874  162.4661 C.ar    1  UNL1        0.0148
      3 C         143.3948  144.3201  163.6527 C.ar    1  UNL1        0.0025
      4 C         142.2804  143.4521  164.1575 C.ar    1  UNL1        0.0148
      5 C         141.9751  142.1515  163.4757 C.ar    1  UNL1        0.0518
      6 C         142.7841  141.7188  162.2890 C.ar    1  UNL1        0.0293
      7 C         144.3678  142.6685  159.2302 C.2     1  UNL1        0.2495
      8 O         143.2189  143.6158  159.0494 O.2     1  UNL1       -0.2698
      9 N         144.7076  142.1539  160.5975 N.am    1  UNL1       -0.2803
     10 H         145.4616  141.5322  160.7162 H       1  UNL1        0.1552
     11 C         145.0053  139.5733  155.1054 C.3     1  UNL1        0.0310
     12 C         145.4955  140.6881  155.9811 C.ar    1  UNL1       -0.0217
     13 C         146.7948  141.3701  155.6702 C.ar    1  UNL1       -0.0043
     14 C         147.2851  142.4849  156.5459 C.ar    1  UNL1       -0.0002
     15 C         146.4761  142.9177  157.7325 C.ar    1  UNL1        0.0045
     16 C         145.1768  142.2357  158.0435 C.ar    1  UNL1        0.0534
     17 C         144.6865  141.1209  157.1678 C.ar    1  UNL1        0.0003
     18 N         140.8607  141.2835  163.9804 N.am    1  UNL1       -0.2804
     19 C         141.1192  140.2930  165.0767 C.2     1  UNL1        0.2495
     20 O         142.4922  140.1704  165.6684 O.2     1  UNL1       -0.2698
     21 H         139.9596  141.3640  163.5922 H       1  UNL1        0.1552
     22 C         140.0048  139.4251  165.5815 C.ar    1  UNL1        0.0576
     23 C         139.1563  139.8859  166.7295 C.ar    1  UNL1        0.0045
     24 C         138.0419  139.0180  167.2343 C.ar    1  UNL1        0.0001
     25 C         137.7760  137.6892  166.5911 C.ar    1  UNL1       -0.0001
     26 C         138.6245  137.2284  165.4432 C.ar    1  UNL1        0.0040
     27 C         139.7389  138.0963  164.9384 C.ar    1  UNL1        0.0758
     28 C         140.5874  137.6355  163.7905 C.3     1  UNL1        0.4187
     29 F         141.4359  137.1746  162.6426 F       1  UNL1       -0.1659
     30 F         141.5145  136.9509  164.7506 F       1  UNL1       -0.1659
     31 F         139.6603  138.3201  162.8304 F       1  UNL1       -0.1659
@<TRIPOS>BOND
     1    11    12    1
     2    12    13   ar
     3    13    14   ar
     4    14    15   ar
     5    15    16   ar
     6    16     7    1
     7     7     8    2
     8     7     9   am
     9     9     1    1
    10     1     2   ar
    11     2     3   ar
    12     3     4   ar
    13     4     5   ar
    14     5    18    1
    15    18    19   am
    16    19    20    2
    17    19    22    1
    18    22    23   ar
    19    23    24   ar
    20    24    25   ar
    21    25    26   ar
    22    26    27   ar
    23    27    28    1
    24    28    29    1
    25    28    30    1
    26    28    31    1
    27     5     6   ar
    28    16    17   ar
    29    17    12   ar
    30     6     1   ar
    31    27    22   ar
    32     9    10    1
    33    18    21    1
@<TRIPOS>MOLECULE
*****
 31 33 0 0 0
SMALL
GASTEIGER

@<TRIPOS>ATOM
      1 C         139.0831  139.8896  163.7583 C.ar    1  UNL1        0.0518
      2 C         138.8065  138.4709  163.3573 C.ar    1  UNL1        0.0148
      3 C         138.9835  138.0471  161.9293 C.ar    1  UNL1        0.0025
      4 C         139.4371  139.0420  160.9024 C.ar    1  UNL1        0.0148
      5 C         139.7137  140.4606  161.3035 C.ar    1  UNL1        0.0518
      6 C         139.5367  140.8844  162.7314 C.ar    1  UNL1        0.0293
      7 C         140.1024  140.4582  166.0794 C.2     1  UNL1        0.2495
      8 O         141.4758  140.1792  165.5447 O.2     1  UNL1       -0.2698
      9 N         138.9061  140.3134  165.1863 N.am    1  UNL1       -0.2803
     10 H         138.0047  140.4966  165.5373 H       1  UNL1        0.1552
     11 C         140.7240  143.9972  169.8331 C.3     1  UNL1        0.0310
     12 C         140.2362  142.6516  169.3842 C.ar    1  UNL1       -0.0217
     13 C         139.5715  141.7299  170.3632 C.ar    1  UNL1       -0.0043
     14 C         139.0837  140.3843  169.9144 C.ar    1  UNL1       -0.0002
     15 C         139.2607  139.9604  168.4865 C.ar    1  UNL1        0.0045
     16 C         139.9254  140.8821  167.5074 C.ar    1  UNL1        0.0534
     17 C         140.4132  142.2277  167.9563 C.ar    1  UNL1        0.0003
     18 N         140.1674  141.4555  160.2766 N.am    1  UNL1       -0.2804
     19 C         139.3562  142.6907  160.0194 C.2     1  UNL1        0.2495
     20 O         138.0913  142.9311  160.7891 O.2     1  UNL1       -0.2698
     21 H         140.9975  141.2977  159.7714 H       1  UNL1        0.1552
     22 C         139.8099  143.6855  158.9925 C.ar    1  UNL1        0.0576
     23 C         139.4161  143.5125  157.5554 C.ar    1  UNL1        0.0045
     24 C         139.8697  144.5074  156.5285 C.ar    1  UNL1        0.0001
     25 C         140.7172  145.6752  156.9387 C.ar    1  UNL1       -0.0001
     26 C         141.1109  145.8481  158.3757 C.ar    1  UNL1        0.0040
     27 C         140.6572  144.8533  159.4026 C.ar    1  UNL1        0.0758
     28 C         141.0510  145.0262  160.8396 C.3     1  UNL1        0.4187
     29 F         141.4447  145.1992  162.2767 F       1  UNL1       -0.1659
     30 F         139.8550  145.9038  161.0617 F       1  UNL1       -0.1659
     31 F         142.2470  144.1486  160.6175 F       1  UNL1       -0.1659
@<TRIPOS>BOND
     1    11    12    1
     2    12    13   ar
     3    13    14   ar
     4    14    15   ar
     5    15    16   ar
     6    16     7    1
     7     7     8    2
     8     7     9   am
     9     9     1    1
    10     1     2   ar
    11     2     3   ar
    12     3     4   ar
    13     4     5   ar
    14     5    18    1
    15    18    19   am
    16    19    20    2
    17    19    22    1
    18    22    23   ar
    19    23    24   ar
    20    24    25   ar
    21    25    26   ar
    22    26    27   ar
    23    27    28    1
    24    28    29    1
    25    28    30    1
    26    28    31    1
    27     5     6   ar
    28    16    17   ar
    29    17    12   ar
    30     6     1   ar
    31    27    22   ar
    32     9    10    1
    33    18    21    1
@<TRIPOS>MOLECULE
*****
 31 33 0 0 0
SMALL
GASTEIGER

@<TRIPOS>ATOM
      1 C         142.6879  140.5878  164.2456 C.ar    1  UNL1        0.0518
      2 C         143.6376  139.4497  164.0158 C.ar    1  UNL1        0.0148
      3 C         144.0776  139.1098  162.6227 C.ar    1  UNL1        0.0025
      4 C         143.5680  139.9080  161.4594 C.ar    1  UNL1        0.0148
      5 C         142.6184  141.0461  161.6893 C.ar    1  UNL1        0.0518
      6 C         142.1783  141.3860  163.0824 C.ar    1  UNL1        0.0293
      7 C         140.8206  140.7140  166.0476 C.2     1  UNL1        0.2495
      8 O         139.8333  140.1603  165.0634 O.2     1  UNL1       -0.2698
      9 N         142.2479  140.9277  165.6388 N.am    1  UNL1       -0.2803
     10 H         142.8958  141.2911  166.2848 H       1  UNL1        0.1552
     11 C         140.5032  144.1160  169.9624 C.3     1  UNL1        0.0310
     12 C         140.2219  142.7550  169.3982 C.ar    1  UNL1       -0.0217
     13 C         139.5005  141.7339  170.2270 C.ar    1  UNL1       -0.0043
     14 C         139.2191  140.3729  169.6627 C.ar    1  UNL1       -0.0002
     15 C         139.6591  140.0329  168.2696 C.ar    1  UNL1        0.0045
     16 C         140.3805  141.0540  167.4408 C.ar    1  UNL1        0.0534
     17 C         140.6619  142.4150  168.0051 C.ar    1  UNL1        0.0003
     18 N         142.1087  141.8443  160.5260 N.am    1  UNL1       -0.2804
     19 C         142.5328  143.2726  160.3532 C.2     1  UNL1        0.2495
     20 O         143.4665  143.9029  161.3438 O.2     1  UNL1       -0.2698
     21 H         141.4959  141.4306  159.8759 H       1  UNL1        0.1552
     22 C         142.0232  144.0708  159.1900 C.ar    1  UNL1        0.0576
     23 C         142.7875  144.0873  157.8994 C.ar    1  UNL1        0.0045
     24 C         142.2779  144.8855  156.7361 C.ar    1  UNL1        0.0001
     25 C         141.0039  145.6672  156.8635 C.ar    1  UNL1       -0.0001
     26 C         140.2397  145.6507  158.1540 C.ar    1  UNL1        0.0040
     27 C         140.7493  144.8525  159.3173 C.ar    1  UNL1        0.0758
     28 C         139.9851  144.8359  160.6078 C.3     1  UNL1        0.4187
     29 F         139.2208  144.8194  161.8985 F       1  UNL1       -0.1659
     30 F         140.7456  146.0419  161.0737 F       1  UNL1       -0.1659
     31 F         139.2245  143.6299  160.1420 F       1  UNL1       -0.1659
@<TRIPOS>BOND
     1    11    12    1
     2    12    13   ar
     3    13    14   ar
     4    14    15   ar
     5    15    16   ar
     6    16     7    1
     7     7     8    2
     8     7     9   am
     9     9     1    1
    10     1     2   ar
    11     2     3   ar
    12     3     4   ar
    13     4     5   ar
    14     5    18    1
    15    18    19   am
    16    19    20    2
    17    19    22    1
    18    22    23   ar
    19    23    24   ar
    20    24    25   ar
    21    25    26   ar
    22    26    27   ar
    23    27    28    1
    24    28    29    1
    25    28    30    1
    26    28    31    1
    27     5     6   ar
    28    16    17   ar
    29    17    12   ar
    30     6     1   ar
    31    27    22   ar
    32     9    10    1
    33    18    21    1
@<TRIPOS>MOLECULE
*****
 31 33 0 0 0
SMALL
GASTEIGER

@<TRIPOS>ATOM
      1 C         140.4342  138.1837  157.3321 C.ar    1  UNL1        0.0518
      2 C         140.2356  139.4537  156.5592 C.ar    1  UNL1        0.0148
      3 C         139.9595  140.7375  157.2842 C.ar    1  UNL1        0.0025
      4 C         139.8821  140.7512  158.7821 C.ar    1  UNL1        0.0148
      5 C         140.0807  139.4812  159.5551 C.ar    1  UNL1        0.0518
      6 C         140.3568  138.1974  158.8301 C.ar    1  UNL1        0.0293
      7 C         142.1163  136.3894  156.4947 C.2     1  UNL1        0.2495
      8 O         143.2462  137.1628  157.1071 O.2     1  UNL1       -0.2698
      9 N         140.7103  136.8998  156.6072 N.am    1  UNL1       -0.2803
     10 H         139.9687  136.3922  156.2052 H       1  UNL1        0.1552
     11 C         144.7097  131.9025  156.1173 C.3     1  UNL1        0.0310
     12 C         143.6891  132.8621  155.5810 C.ar    1  UNL1       -0.0217
     13 C         142.9445  132.5378  154.3199 C.ar    1  UNL1       -0.0043
     14 C         141.9239  133.4974  153.7837 C.ar    1  UNL1       -0.0002
     15 C         141.6478  134.7812  154.5086 C.ar    1  UNL1        0.0045
     16 C         142.3923  135.1055  155.7697 C.ar    1  UNL1        0.0534
     17 C         143.4130  134.1459  156.3059 C.ar    1  UNL1        0.0003
     18 N         140.0033  139.4950  161.0530 N.am    1  UNL1       -0.2804
     19 C         138.6894  139.2630  161.7383 C.2     1  UNL1        0.2495
     20 O         137.4527  139.0173  160.9256 O.2     1  UNL1       -0.2698
     21 H         140.8150  139.6563  161.5864 H       1  UNL1        0.1552
     22 C         138.6120  139.2768  163.2362 C.ar    1  UNL1        0.0576
     23 C         138.8105  138.0066  164.0092 C.ar    1  UNL1        0.0045
     24 C         138.7331  138.0204  165.5071 C.ar    1  UNL1        0.0001
     25 C         138.4572  139.3043  166.2321 C.ar    1  UNL1       -0.0001
     26 C         138.2587  140.5744  165.4591 C.ar    1  UNL1        0.0040
     27 C         138.3361  140.5606  163.9612 C.ar    1  UNL1        0.0758
     28 C         138.1376  141.8306  163.1882 C.3     1  UNL1        0.4187
     29 F         137.9391  143.1008  162.4152 F       1  UNL1       -0.1659
     30 F         139.6094  142.1089  163.2674 F       1  UNL1       -0.1659
     31 F         136.6657  141.5524  163.1091 F       1  UNL1       -0.1659
@<TRIPOS>BOND
     1    11    12    1
     2    12    13   ar
     3    13    14   ar
     4    14    15   ar
     5    15    16   ar
     6    16     7    1
     7     7     8    2
     8     7     9   am
     9     9     1    1
    10     1     2   ar
    11     2     3   ar
    12     3     4   ar
    13     4     5   ar
    14     5    18    1
    15    18    19   am
    16    19    20    2
    17    19    22    1
    18    22    23   ar
    19    23    24   ar
    20    24    25   ar
    21    25    26   ar
    22    26    27   ar
    23    27    28    1
    24    28    29    1
    25    28    30    1
    26    28    31    1
    27     5     6   ar
    28    16    17   ar
    29    17    12   ar
    30     6     1   ar
    31    27    22   ar
    32     9    10    1
    33    18    21    1
@<TRIPOS>MOLECULE
*****
 31 33 0 0 0
SMALL
GASTEIGER

@<TRIPOS>ATOM
      1 C         139.2802  140.7831  161.8226 C.ar    1  UNL1        0.0518
      2 C         137.8501  141.2253  161.7264 C.ar    1  UNL1        0.0148
      3 C         137.1280  141.7008  162.9521 C.ar    1  UNL1        0.0025
      4 C         137.8361  141.7341  164.2741 C.ar    1  UNL1        0.0148
      5 C         139.2661  141.2919  164.3703 C.ar    1  UNL1        0.0518
      6 C         139.9882  140.8164  163.1445 C.ar    1  UNL1        0.0293
      7 C         139.8660  138.8817  160.1519 C.2     1  UNL1        0.2495
      8 O         139.0077  137.9311  160.9327 O.2     1  UNL1       -0.2698
      9 N         140.0023  140.3076  160.5968 N.am    1  UNL1       -0.2803
     10 H         140.5657  140.9315  160.0843 H       1  UNL1        0.1552
     11 C         139.7552  136.9770  155.3186 C.3     1  UNL1        0.0310
     12 C         140.5327  137.4539  156.5095 C.ar    1  UNL1       -0.0217
     13 C         142.0323  137.4552  156.4746 C.ar    1  UNL1       -0.0043
     14 C         142.8098  137.9320  157.6654 C.ar    1  UNL1       -0.0002
     15 C         142.0877  138.4075  158.8912 C.ar    1  UNL1        0.0045
     16 C         140.5882  138.4062  158.9261 C.ar    1  UNL1        0.0534
     17 C         139.8107  137.9293  157.7352 C.ar    1  UNL1        0.0003
     18 N         139.9742  141.3252  165.6922 N.am    1  UNL1       -0.2804
     19 C         140.5470  142.6135  166.2040 C.2     1  UNL1        0.2495
     20 O         140.4118  143.8687  165.3938 O.2     1  UNL1       -0.2698
     21 H         140.0629  140.5014  166.2240 H       1  UNL1        0.1552
     22 C         141.2550  142.6468  167.5260 C.ar    1  UNL1        0.0576
     23 C         140.5270  143.1035  168.7554 C.ar    1  UNL1        0.0045
     24 C         141.2350  143.1368  170.0774 C.ar    1  UNL1        0.0001
     25 C         142.6711  142.7133  170.1699 C.ar    1  UNL1       -0.0001
     26 C         143.3990  142.2567  168.9405 C.ar    1  UNL1        0.0040
     27 C         142.6910  142.2234  167.6186 C.ar    1  UNL1        0.0758
     28 C         143.4190  141.7668  166.3892 C.3     1  UNL1        0.4187
     29 F         144.1470  141.3100  165.1597 F       1  UNL1       -0.1659
     30 F         142.9649  140.3599  166.6429 F       1  UNL1       -0.1659
     31 F         143.8730  143.1737  166.1354 F       1  UNL1       -0.1659
@<TRIPOS>BOND
     1    11    12    1
     2    12    13   ar
     3    13    14   ar
     4    14    15   ar
     5    15    16   ar
     6    16     7    1
     7     7     8    2
     8     7     9   am
     9     9     1    1
    10     1     2   ar
    11     2     3   ar
    12     3     4   ar
    13     4     5   ar
    14     5    18    1
    15    18    19   am
    16    19    20    2
    17    19    22    1
    18    22    23   ar
    19    23    24   ar
    20    24    25   ar
    21    25    26   ar
    22    26    27   ar
    23    27    28    1
    24    28    29    1
    25    28    30    1
    26    28    31    1
    27     5     6   ar
    28    16    17   ar
    29    17    12   ar
    30     6     1   ar
    31    27    22   ar
    32     9    10    1
    33    18    21    1
@<TRIPOS>MOLECULE
*****
 31 33 0 0 0
SMALL
GASTEIGER

@<TRIPOS>ATOM
      1 C         139.6582  139.5422  164.6947 C.ar    1  UNL1        0.0518
      2 C         138.9348  138.2468  164.4742 C.ar    1  UNL1        0.0148
      3 C         138.9634  137.5921  163.1250 C.ar    1  UNL1        0.0025
      4 C         139.7153  138.2328  161.9962 C.ar    1  UNL1        0.0148
      5 C         140.4386  139.5282  162.2166 C.ar    1  UNL1        0.0518
      6 C         140.4101  140.1829  163.5659 C.ar    1  UNL1        0.0293
      7 C         140.7748  140.0073  166.9940 C.2     1  UNL1        0.2495
      8 O         141.9484  139.1628  166.5949 O.2     1  UNL1       -0.2698
      9 N         139.6297  140.1970  166.0440 N.am    1  UNL1       -0.2803
     10 H         138.8593  140.7513  166.3060 H       1  UNL1        0.1552
     11 C         140.3245  144.2828  169.9125 C.3     1  UNL1        0.0310
     12 C         140.5211  142.7998  169.8025 C.ar    1  UNL1       -0.0217
     13 C         140.6892  141.9716  171.0417 C.ar    1  UNL1       -0.0043
     14 C         140.8858  140.4886  170.9318 C.ar    1  UNL1       -0.0002
     15 C         140.9143  139.8338  169.5826 C.ar    1  UNL1        0.0045
     16 C         140.7462  140.6620  168.3433 C.ar    1  UNL1        0.0534
     17 C         140.5496  142.1450  168.4533 C.ar    1  UNL1        0.0003
     18 N         141.1906  140.1689  161.0879 N.am    1  UNL1       -0.2804
     19 C         142.6725  139.9714  160.9662 C.2     1  UNL1        0.2495
     20 O         143.4026  139.1331  161.9734 O.2     1  UNL1       -0.2698
     21 H         140.7114  140.7191  160.4268 H       1  UNL1        0.1552
     22 C         143.4244  140.6121  159.8375 C.ar    1  UNL1        0.0576
     23 C         143.4936  139.9333  158.5016 C.ar    1  UNL1        0.0045
     24 C         144.2455  140.5740  157.3728 C.ar    1  UNL1        0.0001
     25 C         144.9282  141.8935  157.5799 C.ar    1  UNL1       -0.0001
     26 C         144.8590  142.5722  158.9157 C.ar    1  UNL1        0.0040
     27 C         144.1071  141.9315  160.0445 C.ar    1  UNL1        0.0758
     28 C         144.0379  142.6103  161.3803 C.3     1  UNL1        0.4187
     29 F         143.9686  143.2891  162.7162 F       1  UNL1       -0.1659
     30 F         142.7843  143.3165  160.9565 F       1  UNL1       -0.1659
     31 F         145.2915  141.9041  161.8041 F       1  UNL1       -0.1659
@<TRIPOS>BOND
     1    11    12    1
     2    12    13   ar
     3    13    14   ar
     4    14    15   ar
     5    15    16   ar
     6    16     7    1
     7     7     8    2
     8     7     9   am
     9     9     1    1
    10     1     2   ar
    11     2     3   ar
    12     3     4   ar
    13     4     5   ar
    14     5    18    1
    15    18    19   am
    16    19    20    2
    17    19    22    1
    18    22    23   ar
    19    23    24   ar
    20    24    25   ar
    21    25    26   ar
    22    26    27   ar
    23    27    28    1
    24    28    29    1
    25    28    30    1
    26    28    31    1
    27     5     6   ar
    28    16    17   ar
    29    17    12   ar
    30     6     1   ar
    31    27    22   ar
    32     9    10    1
    33    18    21    1
@<TRIPOS>MOLECULE
*****
 31 33 0 0 0
SMALL
GASTEIGER

@<TRIPOS>ATOM
      1 C         143.3556  139.5962  158.9282 C.ar    1  UNL1        0.0518
      2 C         143.7305  140.8650  158.2215 C.ar    1  UNL1        0.0148
      3 C         143.7517  142.1634  158.9722 C.ar    1  UNL1        0.0025
      4 C         143.3981  142.1930  160.4297 C.ar    1  UNL1        0.0148
      5 C         143.0232  140.9241  161.1363 C.ar    1  UNL1        0.0518
      6 C         143.0020  139.6257  160.3856 C.ar    1  UNL1        0.0293
      7 C         142.0758  137.8438  157.4994 C.2     1  UNL1        0.2495
      8 O         140.8383  138.6885  157.5721 O.2     1  UNL1       -0.2698
      9 N         143.3344  138.2977  158.1775 N.am    1  UNL1       -0.2803
     10 H         144.1466  137.7433  158.1298 H       1  UNL1        0.1552
     11 C         144.0129  133.0945  156.6679 C.3     1  UNL1        0.0310
     12 C         143.0231  134.1707  156.3330 C.ar    1  UNL1       -0.0217
     13 C         142.0122  133.9484  155.2474 C.ar    1  UNL1       -0.0043
     14 C         141.0224  135.0246  154.9125 C.ar    1  UNL1       -0.0002
     15 C         141.0436  136.3231  155.6631 C.ar    1  UNL1        0.0045
     16 C         142.0545  136.5453  156.7487 C.ar    1  UNL1        0.0534
     17 C         143.0443  135.4692  157.0836 C.ar    1  UNL1        0.0003
     18 N         142.6696  140.9537  162.5938 N.am    1  UNL1       -0.2804
     19 C         143.7493  140.8498  163.6298 C.2     1  UNL1        0.2495
     20 O         145.1827  140.7163  163.2084 O.2     1  UNL1       -0.2698
     21 H         141.7288  141.0413  162.8703 H       1  UNL1        0.1552
     22 C         143.3957  140.8794  165.0872 C.ar    1  UNL1        0.0576
     23 C         143.0812  139.6024  165.8087 C.ar    1  UNL1        0.0045
     24 C         142.7276  139.6319  167.2661 C.ar    1  UNL1        0.0001
     25 C         142.6884  140.9385  168.0020 C.ar    1  UNL1       -0.0001
     26 C         143.0028  142.2154  167.2805 C.ar    1  UNL1        0.0040
     27 C         143.3564  142.1858  165.8231 C.ar    1  UNL1        0.0758
     28 C         143.6709  143.4627  165.1016 C.3     1  UNL1        0.4187
     29 F         143.9853  144.7397  164.3800 F       1  UNL1       -0.1659
     30 F         145.1205  143.3041  165.4526 F       1  UNL1       -0.1659
     31 F         142.2212  143.6213  164.7505 F       1  UNL1       -0.1659
@<TRIPOS>BOND
     1    11    12    1
     2    12    13   ar
     3    13    14   ar
     4    14    15   ar
     5    15    16   ar
     6    16     7    1
     7     7     8    2
     8     7     9   am
     9     9     1    1
    10     1     2   ar
    11     2     3   ar
    12     3     4   ar
    13     4     5   ar
    14     5    18    1
    15    18    19   am
    16    19    20    2
    17    19    22    1
    18    22    23   ar
    19    23    24   ar
    20    24    25   ar
    21    25    26   ar
    22    26    27   ar
    23    27    28    1
    24    28    29    1
    25    28    30    1
    26    28    31    1
    27     5     6   ar
    28    16    17   ar
    29    17    12   ar
    30     6     1   ar
    31    27    22   ar
    32     9    10    1
    33    18    21    1
@<TRIPOS>MOLECULE
*****
 31 33 0 0 0
SMALL
GASTEIGER

@<TRIPOS>ATOM
      1 C         139.7621  138.7758  160.2579 C.ar    1  UNL1        0.0518
      2 C         138.5105  139.5264  159.9116 C.ar    1  UNL1        0.0148
      3 C         137.6608  140.1108  161.0008 C.ar    1  UNL1        0.0025
      4 C         138.0628  139.9448  162.4363 C.ar    1  UNL1        0.0148
      5 C         139.3145  139.1942  162.7827 C.ar    1  UNL1        0.0518
      6 C         140.1641  138.6097  161.6935 C.ar    1  UNL1        0.0293
      7 C         141.7509  138.9838  158.5991 C.2     1  UNL1        0.2495
      8 O         142.0403  140.3609  159.1187 O.2     1  UNL1       -0.2698
      9 N         140.6119  138.1913  159.1687 N.am    1  UNL1       -0.2803
     10 H         140.4220  137.2875  158.8276 H       1  UNL1        0.1552
     11 C         143.7083  134.8378  156.1538 C.3     1  UNL1        0.0310
     12 C         143.5793  136.3263  156.2872 C.ar    1  UNL1       -0.0217
     13 C         144.3000  137.2302  155.3315 C.ar    1  UNL1       -0.0043
     14 C         144.1710  138.7187  155.4650 C.ar    1  UNL1       -0.0002
     15 C         143.3213  139.3032  156.5541 C.ar    1  UNL1        0.0045
     16 C         142.6007  138.3993  157.5098 C.ar    1  UNL1        0.0534
     17 C         142.7296  136.9108  157.3764 C.ar    1  UNL1        0.0003
     18 N         139.7165  139.0282  164.2182 N.am    1  UNL1       -0.2804
     19 C         140.4488  140.1304  164.9243 C.2     1  UNL1        0.2495
     20 O         140.7791  141.3989  164.1949 O.2     1  UNL1       -0.2698
     21 H         139.4997  138.1957  164.6970 H       1  UNL1        0.1552
     22 C         140.8508  139.9644  166.3599 C.ar    1  UNL1        0.0576
     23 C         139.8566  140.2262  167.4522 C.ar    1  UNL1        0.0045
     24 C         140.2586  140.0601  168.8878 C.ar    1  UNL1        0.0001
     25 C         141.6548  139.6322  169.2310 C.ar    1  UNL1       -0.0001
     26 C         142.6489  139.3705  168.1387 C.ar    1  UNL1        0.0040
     27 C         142.2469  139.5366  166.7031 C.ar    1  UNL1        0.0758
     28 C         143.2410  139.2748  165.6108 C.3     1  UNL1        0.4187
     29 F         144.2351  139.0131  164.5184 F       1  UNL1       -0.1659
     30 F         143.6549  140.7162  165.6421 F       1  UNL1       -0.1659
     31 F         142.8271  137.8334  165.5795 F       1  UNL1       -0.1659
@<TRIPOS>BOND
     1    11    12    1
     2    12    13   ar
     3    13    14   ar
     4    14    15   ar
     5    15    16   ar
     6    16     7    1
     7     7     8    2
     8     7     9   am
     9     9     1    1
    10     1     2   ar
    11     2     3   ar
    12     3     4   ar
    13     4     5   ar
    14     5    18    1
    15    18    19   am
    16    19    20    2
    17    19    22    1
    18    22    23   ar
    19    23    24   ar
    20    24    25   ar
    21    25    26   ar
    22    26    27   ar
    23    27    28    1
    24    28    29    1
    25    28    30    1
    26    28    31    1
    27     5     6   ar
    28    16    17   ar
    29    17    12   ar
    30     6     1   ar
    31    27    22   ar
    32     9    10    1
    33    18    21    1
