@<TRIPOS>MOLECULE
*****
 36 41 0 0 0
SMALL
GASTEIGER

@<TRIPOS>ATOM
      1 C         140.4933  145.3351  158.2148 C.3     1  UNL1        0.0646
      2 C         139.7540  144.0707  157.8913 C.3     1  UNL1        0.0759
      3 C         139.9043  140.5860  160.7346 C.3     1  UNL1        0.0464
      4 C         138.6430  141.3856  160.5942 C.3     1  UNL1        0.0234
      5 C         138.5929  142.5472  159.6465 C.3     1  UNL1        0.0725
      6 N         139.8041  142.9092  158.8390 N.3     1  UNL1       -0.2725
      7 C         141.0654  142.1096  158.9794 C.3     1  UNL1        0.0725
      8 C         141.1155  140.9480  159.9272 C.3     1  UNL1        0.0234
      9 F         137.9543  138.3987  167.2188 F       1  UNL1       -0.2041
     10 C         138.4258  138.7281  165.8335 C.ar    1  UNL1        0.1433
     11 C         138.1432  140.0793  165.2466 C.ar    1  UNL1        0.0299
     12 C         138.6147  140.4087  163.8612 C.ar    1  UNL1        0.0067
     13 C         139.3688  139.3871  163.0628 C.ar    1  UNL1        0.0540
     14 C         139.9544  139.4245  161.6824 C.ar    1  UNL1        0.1003
     15 N         140.5989  138.0964  161.4161 N.ar    1  UNL1       -0.0814
     16 O         140.4116  137.2382  162.6320 O.2     1  UNL1       -0.3536
     17 C         139.6513  138.0359  163.6497 C.ar    1  UNL1        0.1787
     18 C         139.1798  137.7065  165.0350 C.ar    1  UNL1        0.0698
     19 C         140.7485  145.7098  159.6446 C.3     1  UNL1        0.2068
     20 O         139.6009  145.8432  160.6013 O.3     1  UNL1       -0.4754
     21 C         139.6945  145.2437  161.9731 C.ar    1  UNL1        0.1385
     22 C         138.4569  144.7493  162.6616 C.ar    1  UNL1        0.0366
     23 C         138.5505  144.1499  164.0334 C.ar    1  UNL1       -0.0007
     24 C         139.8817  144.0448  164.7167 C.ar    1  UNL1       -0.0127
     25 C         141.1193  144.5393  164.0283 C.ar    1  UNL1       -0.0007
     26 C         141.0257  145.1387  162.6564 C.ar    1  UNL1        0.0366
     27 C         139.9753  143.4454  166.0885 C.3     1  UNL1        0.1116
     28 C         140.8099  142.2200  166.3162 C.ar    1  UNL1        0.2101
     29 N         141.1053  141.5886  167.6444 N.ar    1  UNL1       -0.2118
     30 C         141.9736  140.3892  167.4047 C.ar    1  UNL1        0.1185
     31 C         142.5757  139.3830  168.3401 C.ar    1  UNL1        0.0223
     32 C         143.4191  138.2668  167.7991 C.ar    1  UNL1        0.0017
     33 C         143.6604  138.1568  166.3227 C.ar    1  UNL1        0.0032
     34 C         143.0583  139.1631  165.3873 C.ar    1  UNL1        0.0391
     35 C         142.2149  140.2793  165.9284 C.ar    1  UNL1        0.1644
     36 O         141.4957  141.4107  165.2556 O.2     1  UNL1       -0.4381
@<TRIPOS>BOND
     1     9    10    1
     2    10    11   ar
     3    11    12   ar
     4    12    13   ar
     5    13    14   ar
     6    14     3    1
     7     3     4    1
     8     4     5    1
     9     5     6    1
    10     6     2    1
    11     2     1    1
    12     1    19    1
    13    19    20    1
    14    20    21    1
    15    21    22   ar
    16    22    23   ar
    17    23    24   ar
    18    24    27    1
    19    27    28    1
    20    28    29   ar
    21    29    30   ar
    22    30    31   ar
    23    31    32   ar
    24    32    33   ar
    25    33    34   ar
    26    34    35   ar
    27    35    36   ar
    28    24    25   ar
    29    25    26   ar
    30     6     7    1
    31     7     8    1
    32    14    15   ar
    33    15    16   ar
    34    16    17   ar
    35    17    18   ar
    36    18    10   ar
    37    17    13   ar
    38     8     3    1
    39    26    21   ar
    40    36    28   ar
    41    35    30   ar
@<TRIPOS>MOLECULE
*****
 36 41 0 0 0
SMALL
GASTEIGER

@<TRIPOS>ATOM
      1 C         143.3425  139.6967  156.8133 C.3     1  UNL1        0.0646
      2 C         142.9151  141.0871  157.1793 C.3     1  UNL1        0.0759
      3 C         139.8769  141.7231  160.4374 C.3     1  UNL1        0.0464
      4 C         141.3325  141.6088  160.7812 C.3     1  UNL1        0.0234
      5 C         142.3452  141.3969  159.6951 C.3     1  UNL1        0.0725
      6 N         141.9024  141.2991  158.2654 N.3     1  UNL1       -0.2725
      7 C         140.4468  141.4133  157.9216 C.3     1  UNL1        0.0725
      8 C         139.4341  141.6253  159.0076 C.3     1  UNL1        0.0234
      9 F         138.4329  145.5664  166.2491 F       1  UNL1       -0.2041
     10 C         138.6101  144.6880  165.0462 C.ar    1  UNL1        0.1433
     11 C         139.8390  144.8193  164.1961 C.ar    1  UNL1        0.0299
     12 C         140.0162  143.9409  162.9932 C.ar    1  UNL1        0.0067
     13 C         138.9646  142.9312  162.6403 C.ar    1  UNL1        0.0540
     14 C         138.8641  141.9350  161.5234 C.ar    1  UNL1        0.1003
     15 N         137.5732  141.1880  161.6832 N.ar    1  UNL1       -0.0814
     16 O         136.8758  141.7225  162.8988 O.2     1  UNL1       -0.3536
     17 C         137.7357  142.7999  163.4904 C.ar    1  UNL1        0.1787
     18 C         137.5585  143.6783  164.6933 C.ar    1  UNL1        0.0698
     19 C         142.5869  138.5152  157.3456 C.3     1  UNL1        0.2068
     20 O         142.9431  137.9380  158.6835 O.3     1  UNL1       -0.4754
     21 C         141.9585  138.0004  159.8134 C.ar    1  UNL1        0.1385
     22 C         142.4393  137.9233  161.2322 C.ar    1  UNL1        0.0366
     23 C         141.4547  137.9857  162.3621 C.ar    1  UNL1       -0.0007
     24 C         139.9894  138.1251  162.0732 C.ar    1  UNL1       -0.0127
     25 C         139.5086  138.2021  160.6544 C.ar    1  UNL1       -0.0007
     26 C         140.4932  138.1398  159.5245 C.ar    1  UNL1        0.0366
     27 C         139.0049  138.1874  163.2031 C.3     1  UNL1        0.1116
     28 C         139.3089  139.0127  164.4182 C.ar    1  UNL1        0.2101
     29 N         138.9585  138.6606  165.8336 N.ar    1  UNL1       -0.2118
     30 C         139.4497  139.7653  166.7214 C.ar    1  UNL1        0.1185
     31 C         139.3860  139.9626  168.2070 C.ar    1  UNL1        0.0223
     32 C         139.9764  141.1948  168.8260 C.ar    1  UNL1        0.0017
     33 C         140.6304  142.2297  167.9593 C.ar    1  UNL1        0.0032
     34 C         140.6942  142.0325  166.4737 C.ar    1  UNL1        0.0391
     35 C         140.1038  140.8003  165.8548 C.ar    1  UNL1        0.1644
     36 O         140.0168  140.3352  164.4313 O.2     1  UNL1       -0.4381
@<TRIPOS>BOND
     1     9    10    1
     2    10    11   ar
     3    11    12   ar
     4    12    13   ar
     5    13    14   ar
     6    14     3    1
     7     3     4    1
     8     4     5    1
     9     5     6    1
    10     6     2    1
    11     2     1    1
    12     1    19    1
    13    19    20    1
    14    20    21    1
    15    21    22   ar
    16    22    23   ar
    17    23    24   ar
    18    24    27    1
    19    27    28    1
    20    28    29   ar
    21    29    30   ar
    22    30    31   ar
    23    31    32   ar
    24    32    33   ar
    25    33    34   ar
    26    34    35   ar
    27    35    36   ar
    28    24    25   ar
    29    25    26   ar
    30     6     7    1
    31     7     8    1
    32    14    15   ar
    33    15    16   ar
    34    16    17   ar
    35    17    18   ar
    36    18    10   ar
    37    17    13   ar
    38     8     3    1
    39    26    21   ar
    40    36    28   ar
    41    35    30   ar
@<TRIPOS>MOLECULE
*****
 36 41 0 0 0
SMALL
GASTEIGER

@<TRIPOS>ATOM
      1 C         140.7251  144.1433  157.0614 C.3     1  UNL1        0.0646
      2 C         139.4579  143.5489  157.6008 C.3     1  UNL1        0.0759
      3 C         139.6389  140.3743  160.7851 C.3     1  UNL1        0.0464
      4 C         138.5408  141.3959  160.8060 C.3     1  UNL1        0.0234
      5 C         138.4805  142.4541  159.7446 C.3     1  UNL1        0.0725
      6 N         139.5182  142.4907  158.6622 N.3     1  UNL1       -0.2725
      7 C         140.6164  141.4691  158.6413 C.3     1  UNL1        0.0725
      8 C         140.6767  140.4110  159.7027 C.3     1  UNL1        0.0234
      9 F         143.4444  138.0274  166.3207 F       1  UNL1       -0.2041
     10 C         142.5502  138.4117  165.1793 C.ar    1  UNL1        0.1433
     11 C         142.8850  139.6038  164.3327 C.ar    1  UNL1        0.0299
     12 C         141.9908  139.9881  163.1913 C.ar    1  UNL1        0.0067
     13 C         140.7617  139.1803  162.8966 C.ar    1  UNL1        0.0540
     14 C         139.6993  139.3161  161.8465 C.ar    1  UNL1        0.1003
     15 N         138.7078  138.2080  162.0442 N.ar    1  UNL1       -0.0814
     16 O         139.1574  137.3874  163.2165 O.2     1  UNL1       -0.3536
     17 C         140.4268  137.9883  163.7433 C.ar    1  UNL1        0.1787
     18 C         141.3211  137.6040  164.8847 C.ar    1  UNL1        0.0698
     19 C         141.3631  145.3082  157.7584 C.3     1  UNL1        0.2068
     20 O         142.1590  145.0888  159.0107 O.3     1  UNL1       -0.4754
     21 C         141.4572  144.7987  160.3043 C.ar    1  UNL1        0.1385
     22 C         140.2411  145.5871  160.6909 C.ar    1  UNL1        0.0366
     23 C         139.5393  145.2970  161.9845 C.ar    1  UNL1       -0.0007
     24 C         140.0535  144.2185  162.8913 C.ar    1  UNL1       -0.0127
     25 C         141.2697  143.4301  162.5046 C.ar    1  UNL1       -0.0007
     26 C         141.9715  143.7202  161.2111 C.ar    1  UNL1        0.0366
     27 C         139.3517  143.9283  164.1848 C.3     1  UNL1        0.1116
     28 C         139.9945  143.0333  165.2025 C.ar    1  UNL1        0.2101
     29 N         139.3931  141.7905  165.7889 N.ar    1  UNL1       -0.2118
     30 C         140.3785  141.2130  166.7614 C.ar    1  UNL1        0.1185
     31 C         140.3300  139.9950  167.6354 C.ar    1  UNL1        0.0223
     32 C         141.4918  139.6628  168.5241 C.ar    1  UNL1        0.0017
     33 C         142.7022  140.5487  168.5387 C.ar    1  UNL1        0.0032
     34 C         142.7507  141.7668  167.6646 C.ar    1  UNL1        0.0391
     35 C         141.5889  142.0989  166.7760 C.ar    1  UNL1        0.1644
     36 O         141.3516  143.2239  165.8126 O.2     1  UNL1       -0.4381
@<TRIPOS>BOND
     1     9    10    1
     2    10    11   ar
     3    11    12   ar
     4    12    13   ar
     5    13    14   ar
     6    14     3    1
     7     3     4    1
     8     4     5    1
     9     5     6    1
    10     6     2    1
    11     2     1    1
    12     1    19    1
    13    19    20    1
    14    20    21    1
    15    21    22   ar
    16    22    23   ar
    17    23    24   ar
    18    24    27    1
    19    27    28    1
    20    28    29   ar
    21    29    30   ar
    22    30    31   ar
    23    31    32   ar
    24    32    33   ar
    25    33    34   ar
    26    34    35   ar
    27    35    36   ar
    28    24    25   ar
    29    25    26   ar
    30     6     7    1
    31     7     8    1
    32    14    15   ar
    33    15    16   ar
    34    16    17   ar
    35    17    18   ar
    36    18    10   ar
    37    17    13   ar
    38     8     3    1
    39    26    21   ar
    40    36    28   ar
    41    35    30   ar
@<TRIPOS>MOLECULE
*****
 36 41 0 0 0
SMALL
GASTEIGER

@<TRIPOS>ATOM
      1 C         140.1876  145.1586  158.3559 C.3     1  UNL1        0.0646
      2 C         139.8094  143.7788  157.9054 C.3     1  UNL1        0.0759
      3 C         139.8618  140.3623  160.8337 C.3     1  UNL1        0.0464
      4 C         138.7459  141.3640  160.8697 C.3     1  UNL1        0.0234
      5 C         138.7284  142.5028  159.8936 C.3     1  UNL1        0.0725
      6 N         139.8269  142.6400  158.8815 N.3     1  UNL1       -0.2725
      7 C         140.9428  141.6383  158.8454 C.3     1  UNL1        0.0725
      8 C         140.9602  140.4995  159.8215 C.3     1  UNL1        0.0234
      9 F         137.8684  138.3973  167.3756 F       1  UNL1       -0.2041
     10 C         138.3448  138.6777  165.9812 C.ar    1  UNL1        0.1433
     11 C         138.1022  140.0220  165.3618 C.ar    1  UNL1        0.0299
     12 C         138.5787  140.3024  163.9674 C.ar    1  UNL1        0.0067
     13 C         139.2978  139.2384  163.1924 C.ar    1  UNL1        0.0540
     14 C         139.8793  139.2235  161.8098 C.ar    1  UNL1        0.1003
     15 N         140.4813  137.8698  161.5746 N.ar    1  UNL1       -0.0814
     16 O         140.2718  137.0481  162.8119 O.2     1  UNL1       -0.3536
     17 C         139.5404  137.8940  163.8118 C.ar    1  UNL1        0.1787
     18 C         139.0639  137.6136  165.2062 C.ar    1  UNL1        0.0698
     19 C         141.3128  145.3476  159.3296 C.3     1  UNL1        0.2068
     20 O         141.0258  145.4373  160.7992 O.3     1  UNL1       -0.4754
     21 C         141.3806  144.2945  161.7037 C.ar    1  UNL1        0.1385
     22 C         140.5151  143.9783  162.8873 C.ar    1  UNL1        0.0366
     23 C         140.8698  142.8355  163.7919 C.ar    1  UNL1       -0.0007
     24 C         142.0901  142.0091  163.5128 C.ar    1  UNL1       -0.0127
     25 C         142.9557  142.3253  162.3292 C.ar    1  UNL1       -0.0007
     26 C         142.6009  143.4681  161.4247 C.ar    1  UNL1        0.0366
     27 C         142.4449  140.8663  164.4173 C.3     1  UNL1        0.1116
     28 C         142.2096  140.9780  165.8946 C.ar    1  UNL1        0.2101
     29 N         142.7214  142.0680  166.7890 N.ar    1  UNL1       -0.2118
     30 C         142.2492  141.7831  168.1839 C.ar    1  UNL1        0.1185
     31 C         142.4473  142.5129  169.4794 C.ar    1  UNL1        0.0223
     32 C         141.8416  141.9766  170.7425 C.ar    1  UNL1        0.0017
     33 C         141.0379  140.7104  170.7102 C.ar    1  UNL1        0.0032
     34 C         140.8399  139.9806  169.4148 C.ar    1  UNL1        0.0391
     35 C         141.4456  140.5169  168.1517 C.ar    1  UNL1        0.1644
     36 O         141.4210  140.0194  166.7368 O.2     1  UNL1       -0.4381
@<TRIPOS>BOND
     1     9    10    1
     2    10    11   ar
     3    11    12   ar
     4    12    13   ar
     5    13    14   ar
     6    14     3    1
     7     3     4    1
     8     4     5    1
     9     5     6    1
    10     6     2    1
    11     2     1    1
    12     1    19    1
    13    19    20    1
    14    20    21    1
    15    21    22   ar
    16    22    23   ar
    17    23    24   ar
    18    24    27    1
    19    27    28    1
    20    28    29   ar
    21    29    30   ar
    22    30    31   ar
    23    31    32   ar
    24    32    33   ar
    25    33    34   ar
    26    34    35   ar
    27    35    36   ar
    28    24    25   ar
    29    25    26   ar
    30     6     7    1
    31     7     8    1
    32    14    15   ar
    33    15    16   ar
    34    16    17   ar
    35    17    18   ar
    36    18    10   ar
    37    17    13   ar
    38     8     3    1
    39    26    21   ar
    40    36    28   ar
    41    35    30   ar
@<TRIPOS>MOLECULE
*****
 36 41 0 0 0
SMALL
GASTEIGER

@<TRIPOS>ATOM
      1 C         142.9764  141.1579  155.7096 C.3     1  UNL1        0.0646
      2 C         142.8613  142.3494  156.6136 C.3     1  UNL1        0.0759
      3 C         139.9501  142.2975  160.0447 C.3     1  UNL1        0.0464
      4 C         139.4608  142.5515  158.6497 C.3     1  UNL1        0.0234
      5 C         140.4312  142.5688  157.5060 C.3     1  UNL1        0.0725
      6 N         141.8909  142.3321  157.7573 N.3     1  UNL1       -0.2725
      7 C         142.3802  142.0781  159.1523 C.3     1  UNL1        0.0725
      8 C         141.4098  142.0608  160.2960 C.3     1  UNL1        0.0234
      9 F         138.3683  145.3820  166.2589 F       1  UNL1       -0.2041
     10 C         138.5852  144.6464  164.9698 C.ar    1  UNL1        0.1433
     11 C         139.7410  145.0085  164.0849 C.ar    1  UNL1        0.0299
     12 C         139.9579  144.2728  162.7958 C.ar    1  UNL1        0.0067
     13 C         139.0190  143.1750  162.3916 C.ar    1  UNL1        0.0540
     14 C         138.9797  142.2802  161.1884 C.ar    1  UNL1        0.1003
     15 N         137.7996  141.3650  161.3297 N.ar    1  UNL1       -0.0814
     16 O         137.1096  141.6943  162.6202 O.2     1  UNL1       -0.3536
     17 C         137.8633  142.8129  163.2765 C.ar    1  UNL1        0.1787
     18 C         137.6464  143.5486  164.5656 C.ar    1  UNL1        0.0698
     19 C         143.0763  139.7800  156.2938 C.3     1  UNL1        0.2068
     20 O         141.8342  138.9711  156.5238 O.3     1  UNL1       -0.4754
     21 C         141.3250  138.7586  157.9186 C.ar    1  UNL1        0.1385
     22 C         139.8587  138.8843  158.2090 C.ar    1  UNL1        0.0366
     23 C         139.3496  138.6718  159.6039 C.ar    1  UNL1       -0.0007
     24 C         140.3067  138.3336  160.7082 C.ar    1  UNL1       -0.0127
     25 C         141.7729  138.2079  160.4178 C.ar    1  UNL1       -0.0007
     26 C         142.2821  138.4204  159.0230 C.ar    1  UNL1        0.0366
     27 C         139.7975  138.1211  162.1030 C.3     1  UNL1        0.1116
     28 C         140.0884  139.1344  163.1702 C.ar    1  UNL1        0.2101
     29 N         141.2290  140.1086  163.1736 N.ar    1  UNL1       -0.2118
     30 C         141.1354  140.9276  164.4267 C.ar    1  UNL1        0.1185
     31 C         141.9866  142.0391  164.9653 C.ar    1  UNL1        0.0223
     32 C         141.6393  142.6826  166.2750 C.ar    1  UNL1        0.0017
     33 C         140.4409  142.2145  167.0461 C.ar    1  UNL1        0.0032
     34 C         139.5897  141.1030  166.5076 C.ar    1  UNL1        0.0391
     35 C         139.9370  140.4596  165.1979 C.ar    1  UNL1        0.1644
     36 O         139.2899  139.3513  164.4213 O.2     1  UNL1       -0.4381
@<TRIPOS>BOND
     1     9    10    1
     2    10    11   ar
     3    11    12   ar
     4    12    13   ar
     5    13    14   ar
     6    14     3    1
     7     3     4    1
     8     4     5    1
     9     5     6    1
    10     6     2    1
    11     2     1    1
    12     1    19    1
    13    19    20    1
    14    20    21    1
    15    21    22   ar
    16    22    23   ar
    17    23    24   ar
    18    24    27    1
    19    27    28    1
    20    28    29   ar
    21    29    30   ar
    22    30    31   ar
    23    31    32   ar
    24    32    33   ar
    25    33    34   ar
    26    34    35   ar
    27    35    36   ar
    28    24    25   ar
    29    25    26   ar
    30     6     7    1
    31     7     8    1
    32    14    15   ar
    33    15    16   ar
    34    16    17   ar
    35    17    18   ar
    36    18    10   ar
    37    17    13   ar
    38     8     3    1
    39    26    21   ar
    40    36    28   ar
    41    35    30   ar
@<TRIPOS>MOLECULE
*****
 36 41 0 0 0
SMALL
GASTEIGER

@<TRIPOS>ATOM
      1 C         140.5891  144.4543  157.9319 C.3     1  UNL1        0.0646
      2 C         139.8472  143.1664  157.7298 C.3     1  UNL1        0.0759
      3 C         139.9973  139.9638  160.8875 C.3     1  UNL1        0.0464
      4 C         141.2685  140.4763  160.2780 C.3     1  UNL1        0.0234
      5 C         141.2184  141.5438  159.2255 C.3     1  UNL1        0.0725
      6 N         139.8972  142.0989  158.7823 N.3     1  UNL1       -0.2725
      7 C         138.6261  141.5863  159.3918 C.3     1  UNL1        0.0725
      8 C         138.6761  140.5188  160.4443 C.3     1  UNL1        0.0234
      9 F         137.7900  138.2729  167.4374 F       1  UNL1       -0.2041
     10 C         138.3226  138.4998  166.0536 C.ar    1  UNL1        0.1433
     11 C         138.0119  139.7767  165.3304 C.ar    1  UNL1        0.0299
     12 C         138.5445  140.0036  163.9466 C.ar    1  UNL1        0.0067
     13 C         139.3878  138.9536  163.2860 C.ar    1  UNL1        0.0540
     14 C         140.0474  138.8962  161.9400 C.ar    1  UNL1        0.1003
     15 N         140.7657  137.5839  161.8314 N.ar    1  UNL1       -0.0814
     16 O         140.5502  136.8302  163.1102 O.2     1  UNL1       -0.3536
     17 C         139.6986  137.6768  164.0092 C.ar    1  UNL1        0.1787
     18 C         139.1660  137.4499  165.3930 C.ar    1  UNL1        0.0698
     19 C         139.8731  145.6547  158.4764 C.3     1  UNL1        0.2068
     20 O         139.8738  145.9230  159.9522 O.3     1  UNL1       -0.4754
     21 C         140.4328  144.9032  160.8996 C.ar    1  UNL1        0.1385
     22 C         139.5090  144.0940  161.7610 C.ar    1  UNL1        0.0366
     23 C         140.0679  143.0742  162.7084 C.ar    1  UNL1       -0.0007
     24 C         141.5505  142.8635  162.7943 C.ar    1  UNL1       -0.0127
     25 C         142.4743  143.6727  161.9329 C.ar    1  UNL1       -0.0007
     26 C         141.9154  144.6925  160.9855 C.ar    1  UNL1        0.0366
     27 C         142.1095  141.8437  163.7417 C.3     1  UNL1        0.1116
     28 C         141.6218  141.7901  165.1592 C.ar    1  UNL1        0.2101
     29 N         141.4433  140.5499  165.9839 N.ar    1  UNL1       -0.2118
     30 C         140.9381  140.9605  167.3353 C.ar    1  UNL1        0.1185
     31 C         140.5827  140.1670  168.5576 C.ar    1  UNL1        0.0223
     32 C         140.0934  140.8676  169.7904 C.ar    1  UNL1        0.0017
     33 C         139.9596  142.3616  169.8009 C.ar    1  UNL1        0.0032
     34 C         140.3151  143.1550  168.5786 C.ar    1  UNL1        0.0391
     35 C         140.8043  142.4545  167.3458 C.ar    1  UNL1        0.1644
     36 O         141.2268  142.9672  166.0009 O.2     1  UNL1       -0.4381
@<TRIPOS>BOND
     1     9    10    1
     2    10    11   ar
     3    11    12   ar
     4    12    13   ar
     5    13    14   ar
     6    14     3    1
     7     3     4    1
     8     4     5    1
     9     5     6    1
    10     6     2    1
    11     2     1    1
    12     1    19    1
    13    19    20    1
    14    20    21    1
    15    21    22   ar
    16    22    23   ar
    17    23    24   ar
    18    24    27    1
    19    27    28    1
    20    28    29   ar
    21    29    30   ar
    22    30    31   ar
    23    31    32   ar
    24    32    33   ar
    25    33    34   ar
    26    34    35   ar
    27    35    36   ar
    28    24    25   ar
    29    25    26   ar
    30     6     7    1
    31     7     8    1
    32    14    15   ar
    33    15    16   ar
    34    16    17   ar
    35    17    18   ar
    36    18    10   ar
    37    17    13   ar
    38     8     3    1
    39    26    21   ar
    40    36    28   ar
    41    35    30   ar
@<TRIPOS>MOLECULE
*****
 36 41 0 0 0
SMALL
GASTEIGER

@<TRIPOS>ATOM
      1 C         141.9380  140.6561  158.8291 C.3     1  UNL1        0.0646
      2 C         143.2576  140.7229  159.5391 C.3     1  UNL1        0.0759
      3 C         143.3932  141.5264  163.9648 C.3     1  UNL1        0.0464
      4 C         142.1564  141.8519  163.1809 C.3     1  UNL1        0.0234
      5 C         142.1112  141.5840  161.7058 C.3     1  UNL1        0.0725
      6 N         143.3028  140.9908  161.0143 N.3     1  UNL1       -0.2725
      7 C         144.5396  140.6653  161.7981 C.3     1  UNL1        0.0725
      8 C         144.5848  140.9332  163.2733 C.3     1  UNL1        0.0234
      9 F         142.5316  138.5243  170.3582 F       1  UNL1       -0.2041
     10 C         142.7437  139.2814  169.0808 C.ar    1  UNL1        0.1433
     11 C         142.5873  138.5852  167.7615 C.ar    1  UNL1        0.0299
     12 C         142.7994  139.3423  166.4841 C.ar    1  UNL1        0.0067
     13 C         143.1679  140.7957  166.5260 C.ar    1  UNL1        0.0540
     14 C         143.4384  141.7943  165.4399 C.ar    1  UNL1        0.1003
     15 N         143.7621  143.1078  166.0881 N.ar    1  UNL1       -0.0814
     16 O         143.6916  142.9209  167.5747 O.2     1  UNL1       -0.3536
     17 C         143.3244  141.4919  167.8453 C.ar    1  UNL1        0.1787
     18 C         143.1123  140.7348  169.1228 C.ar    1  UNL1        0.0698
     19 C         141.1916  139.3571  158.7540 C.3     1  UNL1        0.2068
     20 O         141.4915  138.2621  159.7343 O.3     1  UNL1       -0.4754
     21 C         140.8194  138.2511  161.0753 C.ar    1  UNL1        0.1385
     22 C         139.3651  138.6010  161.1881 C.ar    1  UNL1        0.0366
     23 C         138.6930  138.5900  162.5290 C.ar    1  UNL1       -0.0007
     24 C         139.4751  138.2291  163.7570 C.ar    1  UNL1       -0.0127
     25 C         140.9294  137.8792  163.6442 C.ar    1  UNL1       -0.0007
     26 C         141.6015  137.8902  162.3032 C.ar    1  UNL1        0.0366
     27 C         138.8030  138.2181  165.0980 C.3     1  UNL1        0.1116
     28 C         139.1121  139.2901  166.1006 C.ar    1  UNL1        0.2101
     29 N         139.0052  139.1605  167.5912 N.ar    1  UNL1       -0.2118
     30 C         139.4093  140.4702  168.2006 C.ar    1  UNL1        0.1185
     31 C         139.4986  140.9290  169.6259 C.ar    1  UNL1        0.0223
     32 C         139.9446  142.3269  169.9373 C.ar    1  UNL1        0.0017
     33 C         140.3013  143.2660  168.8233 C.ar    1  UNL1        0.0032
     34 C         140.2120  142.8072  167.3980 C.ar    1  UNL1        0.0391
     35 C         139.7660  141.4093  167.0867 C.ar    1  UNL1        0.1644
     36 O         139.5823  140.6800  165.7888 O.2     1  UNL1       -0.4381
@<TRIPOS>BOND
     1     9    10    1
     2    10    11   ar
     3    11    12   ar
     4    12    13   ar
     5    13    14   ar
     6    14     3    1
     7     3     4    1
     8     4     5    1
     9     5     6    1
    10     6     2    1
    11     2     1    1
    12     1    19    1
    13    19    20    1
    14    20    21    1
    15    21    22   ar
    16    22    23   ar
    17    23    24   ar
    18    24    27    1
    19    27    28    1
    20    28    29   ar
    21    29    30   ar
    22    30    31   ar
    23    31    32   ar
    24    32    33   ar
    25    33    34   ar
    26    34    35   ar
    27    35    36   ar
    28    24    25   ar
    29    25    26   ar
    30     6     7    1
    31     7     8    1
    32    14    15   ar
    33    15    16   ar
    34    16    17   ar
    35    17    18   ar
    36    18    10   ar
    37    17    13   ar
    38     8     3    1
    39    26    21   ar
    40    36    28   ar
    41    35    30   ar
@<TRIPOS>MOLECULE
*****
 36 41 0 0 0
SMALL
GASTEIGER

@<TRIPOS>ATOM
      1 C         140.9945  145.4741  159.3302 C.3     1  UNL1        0.0646
      2 C         140.3431  145.8662  160.6232 C.3     1  UNL1        0.0759
      3 C         139.9106  142.8462  163.9312 C.3     1  UNL1        0.0464
      4 C         138.8333  143.8638  163.6991 C.3     1  UNL1        0.0234
      5 C         138.9775  144.8704  162.5964 C.3     1  UNL1        0.0725
      6 N         140.1989  144.8596  161.7259 N.3     1  UNL1       -0.2725
      7 C         141.2763  143.8420  161.9581 C.3     1  UNL1        0.0725
      8 C         141.1321  142.8354  163.0607 C.3     1  UNL1        0.0234
      9 F         143.0888  140.2038  169.7234 F       1  UNL1       -0.2041
     10 C         142.3101  140.6668  168.5279 C.ar    1  UNL1        0.1433
     11 C         142.8562  141.7558  167.6528 C.ar    1  UNL1        0.0299
     12 C         142.0776  142.2187  166.4573 C.ar    1  UNL1        0.0067
     13 C         140.7527  141.5927  166.1368 C.ar    1  UNL1        0.0540
     14 C         139.7665  141.8396  165.0339 C.ar    1  UNL1        0.1003
     15 N         138.6107  140.9032  165.2273 N.ar    1  UNL1       -0.0814
     16 O         138.8827  140.0775  166.4497 O.2     1  UNL1       -0.3536
     17 C         140.2066  140.5037  167.0118 C.ar    1  UNL1        0.1787
     18 C         140.9853  140.0407  168.2073 C.ar    1  UNL1        0.0698
     19 C         140.1852  145.4217  158.0683 C.3     1  UNL1        0.2068
     20 O         139.5739  144.1265  157.6226 O.3     1  UNL1       -0.4754
     21 C         139.6067  142.9309  158.5279 C.ar    1  UNL1        0.1385
     22 C         138.5086  142.7165  159.5271 C.ar    1  UNL1        0.0366
     23 C         138.5413  141.5210  160.4323 C.ar    1  UNL1       -0.0007
     24 C         139.6721  140.5399  160.3385 C.ar    1  UNL1       -0.0127
     25 C         140.7702  140.7543  159.3393 C.ar    1  UNL1       -0.0007
     26 C         140.7374  141.9499  158.4340 C.ar    1  UNL1        0.0366
     27 C         139.7048  139.3444  161.2437 C.3     1  UNL1        0.1116
     28 C         140.7979  139.2038  162.2613 C.ar    1  UNL1        0.2101
     29 N         140.6840  138.5134  163.5881 N.ar    1  UNL1       -0.2118
     30 C         142.0125  138.6118  164.2775 C.ar    1  UNL1        0.1185
     31 C         142.4916  138.1144  165.6091 C.ar    1  UNL1        0.0223
     32 C         143.9058  138.3684  166.0400 C.ar    1  UNL1        0.0017
     33 C         144.8408  139.1197  165.1393 C.ar    1  UNL1        0.0032
     34 C         144.3617  139.6171  163.8077 C.ar    1  UNL1        0.0391
     35 C         142.9476  139.3631  163.3769 C.ar    1  UNL1        0.1644
     36 O         142.1970  139.7290  162.1308 O.2     1  UNL1       -0.4381
@<TRIPOS>BOND
     1     9    10    1
     2    10    11   ar
     3    11    12   ar
     4    12    13   ar
     5    13    14   ar
     6    14     3    1
     7     3     4    1
     8     4     5    1
     9     5     6    1
    10     6     2    1
    11     2     1    1
    12     1    19    1
    13    19    20    1
    14    20    21    1
    15    21    22   ar
    16    22    23   ar
    17    23    24   ar
    18    24    27    1
    19    27    28    1
    20    28    29   ar
    21    29    30   ar
    22    30    31   ar
    23    31    32   ar
    24    32    33   ar
    25    33    34   ar
    26    34    35   ar
    27    35    36   ar
    28    24    25   ar
    29    25    26   ar
    30     6     7    1
    31     7     8    1
    32    14    15   ar
    33    15    16   ar
    34    16    17   ar
    35    17    18   ar
    36    18    10   ar
    37    17    13   ar
    38     8     3    1
    39    26    21   ar
    40    36    28   ar
    41    35    30   ar
@<TRIPOS>MOLECULE
*****
 36 41 0 0 0
SMALL
GASTEIGER

@<TRIPOS>ATOM
      1 C         140.1111  144.0573  156.5185 C.3     1  UNL1        0.0646
      2 C         139.6893  144.2206  157.9487 C.3     1  UNL1        0.0759
      3 C         139.7356  140.6805  160.7265 C.3     1  UNL1        0.0464
      4 C         138.8691  140.6619  159.5022 C.3     1  UNL1        0.0234
      5 C         138.8537  141.8420  158.5763 C.3     1  UNL1        0.0725
      6 N         139.7047  143.0406  158.8746 N.3     1  UNL1       -0.2725
      7 C         140.5712  143.0591  160.0989 C.3     1  UNL1        0.0725
      8 C         140.5866  141.8791  161.0248 C.3     1  UNL1        0.0234
      9 F         138.0124  138.5261  167.2855 F       1  UNL1       -0.2041
     10 C         138.4243  138.8447  165.8788 C.ar    1  UNL1        0.1433
     11 C         138.2141  140.2248  165.3301 C.ar    1  UNL1        0.0299
     12 C         138.6261  140.5434  163.9234 C.ar    1  UNL1        0.0067
     13 C         139.2482  139.4819  163.0654 C.ar    1  UNL1        0.0540
     14 C         139.7510  139.5005  161.6524 C.ar    1  UNL1        0.1003
     15 N         140.2720  138.1318  161.3277 N.ar    1  UNL1       -0.0814
     16 O         140.0911  137.2674  162.5402 O.2     1  UNL1       -0.3536
     17 C         139.4583  138.1019  163.6141 C.ar    1  UNL1        0.1787
     18 C         139.0464  137.7832  165.0208 C.ar    1  UNL1        0.0698
     19 C         141.5068  143.6136  156.1942 C.3     1  UNL1        0.2068
     20 O         141.8109  142.1538  156.0315 O.3     1  UNL1       -0.4754
     21 C         142.3704  141.3714  157.1825 C.ar    1  UNL1        0.1385
     22 C         143.4037  141.9891  158.0775 C.ar    1  UNL1        0.0366
     23 C         143.9631  141.2067  159.2285 C.ar    1  UNL1       -0.0007
     24 C         143.4894  139.8067  159.4845 C.ar    1  UNL1       -0.0127
     25 C         142.4561  139.1890  158.5895 C.ar    1  UNL1       -0.0007
     26 C         141.8966  139.9714  157.4385 C.ar    1  UNL1        0.0366
     27 C         144.0489  139.0243  160.6355 C.3     1  UNL1        0.1116
     28 C         143.5602  139.2871  162.0291 C.ar    1  UNL1        0.2101
     29 N         143.1431  140.6181  162.5809 N.ar    1  UNL1       -0.2118
     30 C         142.7279  140.4187  164.0084 C.ar    1  UNL1        0.1185
     31 C         142.2244  141.3734  165.0500 C.ar    1  UNL1        0.0223
     32 C         141.8815  140.8739  166.4222 C.ar    1  UNL1        0.0017
     33 C         142.0419  139.4195  166.7527 C.ar    1  UNL1        0.0032
     34 C         142.5454  138.4648  165.7111 C.ar    1  UNL1        0.0391
     35 C         142.8884  138.9644  164.3389 C.ar    1  UNL1        0.1644
     36 O         143.4027  138.2650  163.1157 O.2     1  UNL1       -0.4381
@<TRIPOS>BOND
     1     9    10    1
     2    10    11   ar
     3    11    12   ar
     4    12    13   ar
     5    13    14   ar
     6    14     3    1
     7     3     4    1
     8     4     5    1
     9     5     6    1
    10     6     2    1
    11     2     1    1
    12     1    19    1
    13    19    20    1
    14    20    21    1
    15    21    22   ar
    16    22    23   ar
    17    23    24   ar
    18    24    27    1
    19    27    28    1
    20    28    29   ar
    21    29    30   ar
    22    30    31   ar
    23    31    32   ar
    24    32    33   ar
    25    33    34   ar
    26    34    35   ar
    27    35    36   ar
    28    24    25   ar
    29    25    26   ar
    30     6     7    1
    31     7     8    1
    32    14    15   ar
    33    15    16   ar
    34    16    17   ar
    35    17    18   ar
    36    18    10   ar
    37    17    13   ar
    38     8     3    1
    39    26    21   ar
    40    36    28   ar
    41    35    30   ar
