@<TRIPOS>MOLECULE
*****
 30 33 0 0 0
SMALL
GASTEIGER

@<TRIPOS>ATOM
      1 O         137.3644  138.0555  166.8475 O.2     1  UNL1       -0.2447
      2 C         138.3540  138.5677  165.8432 C.2     1  UNL1        0.3458
      3 C         138.8007  139.9988  165.8930 C.ar    1  UNL1        0.1283
      4 C         138.4848  141.0568  164.8778 C.ar    1  UNL1        0.2121
      5 N         139.1307  142.3350  165.3242 N.ar    1  UNL1       -0.2989
      6 C         139.8457  142.0668  166.6153 C.ar    1  UNL1        0.0626
      7 C         140.6560  142.9509  167.5162 C.ar    1  UNL1        0.0173
      8 C         141.2625  142.3910  168.7687 C.ar    1  UNL1        0.0015
      9 C         141.0585  140.9471  169.1202 C.ar    1  UNL1        0.0001
     10 C         140.2482  140.0631  168.2193 C.ar    1  UNL1        0.0018
     11 C         139.6417  140.6229  166.9668 C.ar    1  UNL1        0.0266
     12 C         138.9842  143.5779  164.4974 C.3     1  UNL1        0.1127
     13 C         138.1920  143.5427  163.2241 C.3     1  UNL1        0.0719
     14 C         137.5462  142.2646  162.7777 C.3     1  UNL1        0.2091
     15 O         137.6926  141.0216  163.6045 O.3     1  UNL1       -0.4611
     16 O         138.8967  137.6488  164.7892 O.3     1  UNL1       -0.4453
     17 C         140.3299  137.2096  164.8427 C.3     1  UNL1        0.2087
     18 C         141.3809  137.9884  164.1087 C.3     1  UNL1        0.0466
     19 C         142.2420  138.9685  164.8489 C.3     1  UNL1        0.0211
     20 C         143.2930  139.7473  164.1149 C.3     1  UNL1        0.0723
     21 N         143.4830  139.5461  162.6406 N.3     1  UNL1       -0.2706
     22 C         142.6219  138.5660  161.9004 C.3     1  UNL1        0.0723
     23 C         141.5709  137.7872  162.6344 C.3     1  UNL1        0.0211
     24 C         144.5340  140.3250  161.9067 C.3     1  UNL1        0.1043
     25 C         144.9750  141.6620  162.4242 C.3     1  UNL1        0.1555
     26 O         146.2841  141.7930  163.1446 O.3     1  UNL1       -0.3805
     27 H         146.4159  142.7164  163.4106 H       1  UNL1        0.2105
     28 C         144.1067  142.8682  162.2213 C.3     1  UNL1        0.1677
     29 O         144.7099  144.2411  162.2567 O.3     1  UNL1       -0.3795
     30 H         145.0392  144.4266  163.1500 H       1  UNL1        0.2105
@<TRIPOS>BOND
     1     1     2    2
     2     2    16    1
     3    16    17    1
     4    17    18    1
     5    18    19    1
     6    19    20    1
     7    20    21    1
     8    21    24    1
     9    24    25    1
    10    25    26    1
    11    25    28    1
    12    28    29    1
    13    21    22    1
    14    22    23    1
    15     2     3    1
    16     3     4   ar
    17     4     5   ar
    18     5     6   ar
    19     6     7   ar
    20     7     8   ar
    21     8     9   ar
    22     9    10   ar
    23    10    11   ar
    24     5    12    1
    25    12    13    1
    26    13    14    1
    27    14    15    1
    28    23    18    1
    29    11     3   ar
    30    15     4    1
    31    11     6   ar
    32    26    27    1
    33    29    30    1
@<TRIPOS>MOLECULE
*****
 30 33 0 0 0
SMALL
GASTEIGER

@<TRIPOS>ATOM
      1 O         144.4297  137.5506  166.9613 O.2     1  UNL1       -0.2447
      2 C         143.6656  138.6110  166.2250 C.2     1  UNL1        0.3458
      3 C         142.3647  139.1162  166.7747 C.ar    1  UNL1        0.1283
      4 C         142.1787  139.8396  168.0756 C.ar    1  UNL1        0.2121
      5 N         140.7203  140.1573  168.2249 N.ar    1  UNL1       -0.2989
      6 C         140.0050  139.6302  167.0163 C.ar    1  UNL1        0.0626
      7 C         138.5596  139.6530  166.6162 C.ar    1  UNL1        0.0173
      8 C         138.1304  139.0324  165.3198 C.ar    1  UNL1        0.0015
      9 C         139.1467  138.3890  164.4236 C.ar    1  UNL1        0.0001
     10 C         140.5921  138.3662  164.8237 C.ar    1  UNL1        0.0018
     11 C         141.0213  138.9868  166.1201 C.ar    1  UNL1        0.0266
     12 C         140.2322  140.8854  169.4420 C.3     1  UNL1        0.1127
     13 C         141.2023  141.2959  170.5098 C.3     1  UNL1        0.0719
     14 C         142.6607  140.9783  170.3605 C.3     1  UNL1        0.2091
     15 O         143.1489  140.2501  169.1434 O.3     1  UNL1       -0.4611
     16 O         144.2026  139.1659  164.9392 O.3     1  UNL1       -0.4453
     17 C         144.2025  140.6473  164.7034 C.3     1  UNL1        0.2087
     18 C         143.0322  141.2992  164.0286 C.3     1  UNL1        0.0466
     19 C         142.3878  140.6421  162.8442 C.3     1  UNL1        0.0211
     20 C         141.2175  141.2940  162.1693 C.3     1  UNL1        0.0723
     21 N         140.6917  142.6032  162.6788 N.3     1  UNL1       -0.2706
     22 C         141.3362  143.2603  163.8632 C.3     1  UNL1        0.0723
     23 C         142.5064  142.6084  164.5381 C.3     1  UNL1        0.0211
     24 C         139.5215  143.2551  162.0039 C.3     1  UNL1        0.1043
     25 C         138.2050  143.3546  162.7159 C.3     1  UNL1        0.1555
     26 O         137.3749  144.5974  162.5877 O.3     1  UNL1       -0.3805
     27 H         136.5613  144.4977  163.1065 H       1  UNL1        0.2105
     28 C         137.7185  142.2111  163.5561 C.3     1  UNL1        0.1677
     29 O         136.6399  141.3061  163.0389 O.3     1  UNL1       -0.3795
     30 H         135.8132  141.8058  162.9506 H       1  UNL1        0.2105
@<TRIPOS>BOND
     1     1     2    2
     2     2    16    1
     3    16    17    1
     4    17    18    1
     5    18    19    1
     6    19    20    1
     7    20    21    1
     8    21    24    1
     9    24    25    1
    10    25    26    1
    11    25    28    1
    12    28    29    1
    13    21    22    1
    14    22    23    1
    15     2     3    1
    16     3     4   ar
    17     4     5   ar
    18     5     6   ar
    19     6     7   ar
    20     7     8   ar
    21     8     9   ar
    22     9    10   ar
    23    10    11   ar
    24     5    12    1
    25    12    13    1
    26    13    14    1
    27    14    15    1
    28    23    18    1
    29    11     3   ar
    30    15     4    1
    31    11     6   ar
    32    26    27    1
    33    29    30    1
@<TRIPOS>MOLECULE
*****
 30 33 0 0 0
SMALL
GASTEIGER

@<TRIPOS>ATOM
      1 O         137.3323  138.0757  167.1626 O.2     1  UNL1       -0.2447
      2 C         138.4028  138.6000  166.2520 C.2     1  UNL1        0.3458
      3 C         139.1115  139.8792  166.5862 C.ar    1  UNL1        0.1283
      4 C         139.5849  140.2952  167.9474 C.ar    1  UNL1        0.2121
      5 N         140.2371  141.6399  167.8203 N.ar    1  UNL1       -0.2989
      6 C         140.1668  142.0550  166.3806 C.ar    1  UNL1        0.0626
      7 C         140.6464  143.2833  165.6656 C.ar    1  UNL1        0.0173
      8 C         140.4303  143.4234  164.1879 C.ar    1  UNL1        0.0015
      9 C         139.7346  142.3352  163.4252 C.ar    1  UNL1        0.0001
     10 C         139.2550  141.1069  164.1402 C.ar    1  UNL1        0.0018
     11 C         139.4711  140.9668  165.6179 C.ar    1  UNL1        0.0266
     12 C         140.8108  142.3127  169.0320 C.3     1  UNL1        0.1127
     13 C         140.7322  141.6408  170.3708 C.3     1  UNL1        0.0719
     14 C         140.0800  140.2960  170.4979 C.3     1  UNL1        0.2091
     15 O         139.5063  139.6232  169.2862 O.3     1  UNL1       -0.4611
     16 O         138.7646  137.8453  165.0073 O.3     1  UNL1       -0.4453
     17 C         140.1378  137.2608  164.8570 C.3     1  UNL1        0.2087
     18 C         141.2115  138.0390  164.1559 C.3     1  UNL1        0.0466
     19 C         141.1397  138.2471  162.6722 C.3     1  UNL1        0.0211
     20 C         142.2134  139.0253  161.9711 C.3     1  UNL1        0.0723
     21 N         143.3590  139.5955  162.7538 N.3     1  UNL1       -0.2706
     22 C         143.4309  139.3873  164.2375 C.3     1  UNL1        0.0723
     23 C         142.3572  138.6091  164.9386 C.3     1  UNL1        0.0211
     24 C         144.4328  140.3737  162.0527 C.3     1  UNL1        0.1043
     25 C         144.8949  141.6862  162.6128 C.3     1  UNL1        0.1555
     26 O         146.2935  141.8276  163.1361 O.3     1  UNL1       -0.3805
     27 H         146.4280  142.7324  163.4590 H       1  UNL1        0.2105
     28 C         143.9584  142.8574  162.6495 C.3     1  UNL1        0.1677
     29 O         144.4629  144.2316  162.3227 O.3     1  UNL1       -0.3795
     30 H         145.0995  144.5116  162.9989 H       1  UNL1        0.2105
@<TRIPOS>BOND
     1     1     2    2
     2     2    16    1
     3    16    17    1
     4    17    18    1
     5    18    19    1
     6    19    20    1
     7    20    21    1
     8    21    24    1
     9    24    25    1
    10    25    26    1
    11    25    28    1
    12    28    29    1
    13    21    22    1
    14    22    23    1
    15     2     3    1
    16     3     4   ar
    17     4     5   ar
    18     5     6   ar
    19     6     7   ar
    20     7     8   ar
    21     8     9   ar
    22     9    10   ar
    23    10    11   ar
    24     5    12    1
    25    12    13    1
    26    13    14    1
    27    14    15    1
    28    23    18    1
    29    11     3   ar
    30    15     4    1
    31    11     6   ar
    32    26    27    1
    33    29    30    1
@<TRIPOS>MOLECULE
*****
 30 33 0 0 0
SMALL
GASTEIGER

@<TRIPOS>ATOM
      1 O         137.8427  143.6525  161.7886 O.2     1  UNL1       -0.2447
      2 C         137.9655  142.7189  162.9563 C.2     1  UNL1        0.3458
      3 C         138.3351  141.2825  162.7324 C.ar    1  UNL1        0.1283
      4 C         138.6970  140.6600  161.4166 C.ar    1  UNL1        0.2121
      5 N         138.9932  139.2092  161.6561 N.ar    1  UNL1       -0.2989
      6 C         138.8144  138.9350  163.1199 C.ar    1  UNL1        0.0626
      7 C         138.9694  137.6842  163.9331 C.ar    1  UNL1        0.0173
      8 C         138.7177  137.7147  165.4115 C.ar    1  UNL1        0.0015
      9 C         138.3109  138.9961  166.0767 C.ar    1  UNL1        0.0001
     10 C         138.1559  140.2470  165.2635 C.ar    1  UNL1        0.0018
     11 C         138.4077  140.2165  163.7852 C.ar    1  UNL1        0.0266
     12 C         139.3876  138.3251  160.5103 C.3     1  UNL1        0.1127
     13 C         139.4856  138.8919  159.1249 C.3     1  UNL1        0.0719
     14 C         139.1894  140.3427  158.8854 C.3     1  UNL1        0.2091
     15 O         138.7951  141.2267  160.0312 O.3     1  UNL1       -0.4611
     16 O         137.7187  143.2218  164.3476 O.3     1  UNL1       -0.4453
     17 C         138.6970  144.1594  164.9909 C.3     1  UNL1        0.2087
     18 C         140.1670  143.8672  164.9300 C.3     1  UNL1        0.0466
     19 C         141.0459  144.6350  163.9878 C.3     1  UNL1        0.0211
     20 C         142.5159  144.3427  163.9269 C.3     1  UNL1        0.0723
     21 N         143.1070  143.2827  164.8083 N.3     1  UNL1       -0.2706
     22 C         142.2281  142.5150  165.7506 C.3     1  UNL1        0.0723
     23 C         140.7581  142.8072  165.8115 C.3     1  UNL1        0.0211
     24 C         144.5770  142.9905  164.7474 C.3     1  UNL1        0.1043
     25 C         145.1046  142.0029  163.7493 C.3     1  UNL1        0.1555
     26 O         145.5301  142.4669  162.3878 O.3     1  UNL1       -0.3805
     27 H         145.8435  141.7082  161.8710 H       1  UNL1        0.2105
     28 C         145.2068  140.5512  164.1127 C.3     1  UNL1        0.1677
     29 O         144.9153  139.4984  163.0849 O.3     1  UNL1       -0.3795
     30 H         143.9781  139.5383  162.8380 H       1  UNL1        0.2105
@<TRIPOS>BOND
     1     1     2    2
     2     2    16    1
     3    16    17    1
     4    17    18    1
     5    18    19    1
     6    19    20    1
     7    20    21    1
     8    21    24    1
     9    24    25    1
    10    25    26    1
    11    25    28    1
    12    28    29    1
    13    21    22    1
    14    22    23    1
    15     2     3    1
    16     3     4   ar
    17     4     5   ar
    18     5     6   ar
    19     6     7   ar
    20     7     8   ar
    21     8     9   ar
    22     9    10   ar
    23    10    11   ar
    24     5    12    1
    25    12    13    1
    26    13    14    1
    27    14    15    1
    28    23    18    1
    29    11     3   ar
    30    15     4    1
    31    11     6   ar
    32    26    27    1
    33    29    30    1
@<TRIPOS>MOLECULE
*****
 30 33 0 0 0
SMALL
GASTEIGER

@<TRIPOS>ATOM
      1 O         142.2539  139.8435  161.3437 O.2     1  UNL1       -0.2447
      2 C         141.5309  140.1417  162.6238 C.2     1  UNL1        0.3458
      3 C         141.3084  141.5639  163.0457 C.ar    1  UNL1        0.1283
      4 C         142.3360  142.6565  163.0391 C.ar    1  UNL1        0.2121
      5 N         141.6819  143.9109  163.5376 N.ar    1  UNL1       -0.2989
      6 C         140.2500  143.5936  163.8523 C.ar    1  UNL1        0.0626
      7 C         139.1266  144.4380  164.3765 C.ar    1  UNL1        0.0173
      8 C         137.7723  143.8319  164.5965 C.ar    1  UNL1        0.0015
      9 C         137.5415  142.3812  164.2925 C.ar    1  UNL1        0.0001
     10 C         138.6649  141.5368  163.7684 C.ar    1  UNL1        0.0018
     11 C         140.0192  142.1430  163.5483 C.ar    1  UNL1        0.0266
     12 C         142.4746  145.1802  163.6406 C.3     1  UNL1        0.1127
     13 C         143.9215  145.1950  163.2451 C.3     1  UNL1        0.0719
     14 C         144.5756  143.9406  162.7466 C.3     1  UNL1        0.2091
     15 O         143.7829  142.6713  162.6436 O.3     1  UNL1       -0.4611
     16 O         141.0304  139.0178  163.4817 O.3     1  UNL1       -0.4453
     17 C         141.7378  138.6776  164.7600 C.3     1  UNL1        0.2087
     18 C         141.2260  139.2109  166.0652 C.3     1  UNL1        0.0466
     19 C         139.7524  139.3993  166.2724 C.3     1  UNL1        0.0211
     20 C         139.2406  139.9327  167.5776 C.3     1  UNL1        0.0723
     21 N         140.2025  140.2776  168.6757 N.3     1  UNL1       -0.2706
     22 C         141.6761  140.0891  168.4686 C.3     1  UNL1        0.0723
     23 C         142.1878  139.5558  167.1633 C.3     1  UNL1        0.0211
     24 C         139.6907  140.8109  169.9810 C.3     1  UNL1        0.1043
     25 C         140.2604  142.0769  170.5489 C.3     1  UNL1        0.1555
     26 O         140.6929  142.1270  171.9844 O.3     1  UNL1       -0.3805
     27 H         141.0350  143.0115  172.1883 H       1  UNL1        0.2105
     28 C         140.3977  143.2929  169.6815 C.3     1  UNL1        0.1677
     29 O         140.0756  144.6493  170.2349 O.3     1  UNL1       -0.3795
     30 H         139.1281  144.6997  170.4363 H       1  UNL1        0.2105
@<TRIPOS>BOND
     1     1     2    2
     2     2    16    1
     3    16    17    1
     4    17    18    1
     5    18    19    1
     6    19    20    1
     7    20    21    1
     8    21    24    1
     9    24    25    1
    10    25    26    1
    11    25    28    1
    12    28    29    1
    13    21    22    1
    14    22    23    1
    15     2     3    1
    16     3     4   ar
    17     4     5   ar
    18     5     6   ar
    19     6     7   ar
    20     7     8   ar
    21     8     9   ar
    22     9    10   ar
    23    10    11   ar
    24     5    12    1
    25    12    13    1
    26    13    14    1
    27    14    15    1
    28    23    18    1
    29    11     3   ar
    30    15     4    1
    31    11     6   ar
    32    26    27    1
    33    29    30    1
@<TRIPOS>MOLECULE
*****
 30 33 0 0 0
SMALL
GASTEIGER

@<TRIPOS>ATOM
      1 O         142.1717  139.8560  161.0984 O.2     1  UNL1       -0.2447
      2 C         142.2002  140.7712  162.2866 C.2     1  UNL1        0.3458
      3 C         140.9730  140.9407  163.1323 C.ar    1  UNL1        0.1283
      4 C         140.2279  142.2229  163.3580 C.ar    1  UNL1        0.2121
      5 N         139.0699  141.9323  164.2660 N.ar    1  UNL1       -0.2989
      6 C         139.0992  140.4706  164.6016 C.ar    1  UNL1        0.0626
      7 C         138.2069  139.6186  165.4546 C.ar    1  UNL1        0.0173
      8 C         138.4908  138.1536  165.6069 C.ar    1  UNL1        0.0015
      9 C         139.6670  137.5407  164.9063 C.ar    1  UNL1        0.0001
     10 C         140.5593  138.3928  164.0533 C.ar    1  UNL1        0.0018
     11 C         140.2754  139.8578  163.9009 C.ar    1  UNL1        0.0266
     12 C         138.1382  143.0363  164.6700 C.3     1  UNL1        0.1127
     13 C         138.3647  144.4309  164.1660 C.3     1  UNL1        0.0719
     14 C         139.5227  144.7214  163.2579 C.3     1  UNL1        0.2091
     15 O         140.4543  143.6174  162.8539 O.3     1  UNL1       -0.4611
     16 O         143.4558  141.5168  162.6289 O.3     1  UNL1       -0.4453
     17 C         144.3468  141.0203  163.7287 C.3     1  UNL1        0.2087
     18 C         143.7618  140.6553  165.0608 C.3     1  UNL1        0.0466
     19 C         143.2310  141.7272  165.9660 C.3     1  UNL1        0.0211
     20 C         142.6459  141.3622  167.2980 C.3     1  UNL1        0.0723
     21 N         142.5916  139.9253  167.7250 N.3     1  UNL1       -0.2706
     22 C         143.1224  138.8534  166.8199 C.3     1  UNL1        0.0723
     23 C         143.7075  139.2184  165.4878 C.3     1  UNL1        0.0211
     24 C         142.0066  139.5603  169.0571 C.3     1  UNL1        0.1043
     25 C         142.4731  140.2611  170.2986 C.3     1  UNL1        0.1555
     26 O         143.6010  139.6881  171.1045 O.3     1  UNL1       -0.3805
     27 H         143.7755  140.2597  171.8685 H       1  UNL1        0.2105
     28 C         141.8117  141.5350  170.7341 C.3     1  UNL1        0.1677
     29 O         142.2036  142.1780  172.0314 O.3     1  UNL1       -0.3795
     30 H         141.9471  141.6018  172.7683 H       1  UNL1        0.2105
@<TRIPOS>BOND
     1     1     2    2
     2     2    16    1
     3    16    17    1
     4    17    18    1
     5    18    19    1
     6    19    20    1
     7    20    21    1
     8    21    24    1
     9    24    25    1
    10    25    26    1
    11    25    28    1
    12    28    29    1
    13    21    22    1
    14    22    23    1
    15     2     3    1
    16     3     4   ar
    17     4     5   ar
    18     5     6   ar
    19     6     7   ar
    20     7     8   ar
    21     8     9   ar
    22     9    10   ar
    23    10    11   ar
    24     5    12    1
    25    12    13    1
    26    13    14    1
    27    14    15    1
    28    23    18    1
    29    11     3   ar
    30    15     4    1
    31    11     6   ar
    32    26    27    1
    33    29    30    1
@<TRIPOS>MOLECULE
*****
 30 33 0 0 0
SMALL
GASTEIGER

@<TRIPOS>ATOM
      1 O         137.6462  144.7943  165.3085 O.2     1  UNL1       -0.2447
      2 C         138.1436  144.0922  164.0797 C.2     1  UNL1        0.3458
      3 C         138.6624  142.6881  164.1764 C.ar    1  UNL1        0.1283
      4 C         138.3683  141.5716  163.2188 C.ar    1  UNL1        0.2121
      5 N         139.0905  140.3475  163.6982 N.ar    1  UNL1       -0.2989
      6 C         139.8310  140.7074  164.9522 C.ar    1  UNL1        0.0626
      7 C         140.7119  139.9048  165.8630 C.ar    1  UNL1        0.0173
      8 C         141.3282  140.5488  167.0694 C.ar    1  UNL1        0.0015
      9 C         141.0636  141.9954  167.3649 C.ar    1  UNL1        0.0001
     10 C         140.1827  142.7980  166.4540 C.ar    1  UNL1        0.0018
     11 C         139.5663  142.1540  165.2477 C.ar    1  UNL1        0.0266
     12 C         138.9807  139.0632  162.9311 C.3     1  UNL1        0.1127
     13 C         138.1486  139.0031  161.6845 C.3     1  UNL1        0.0719
     14 C         137.4264  140.2272  161.2050 C.3     1  UNL1        0.2091
     15 O         137.5362  141.5115  161.9721 O.3     1  UNL1       -0.4611
     16 O         138.1222  144.7943  162.7544 O.3     1  UNL1       -0.4453
     17 C         139.2868  145.6419  162.3357 C.3     1  UNL1        0.2087
     18 C         140.6424  145.0228  162.1660 C.3     1  UNL1        0.0466
     19 C         140.9637  144.2505  160.9209 C.3     1  UNL1        0.0211
     20 C         142.3194  143.6313  160.7512 C.3     1  UNL1        0.0723
     21 N         143.3538  143.7845  161.8266 N.3     1  UNL1       -0.2706
     22 C         143.0325  144.5568  163.0716 C.3     1  UNL1        0.0723
     23 C         141.6769  145.1760  163.2414 C.3     1  UNL1        0.0211
     24 C         144.7095  143.1653  161.6569 C.3     1  UNL1        0.1043
     25 C         145.0570  141.9069  162.3955 C.3     1  UNL1        0.1555
     26 O         146.3294  141.8282  163.1861 O.3     1  UNL1       -0.3805
     27 H         146.4004  140.9530  163.5982 H       1  UNL1        0.2105
     28 C         144.1322  140.7271  162.3435 C.3     1  UNL1        0.1677
     29 O         142.8674  140.7294  163.1498 O.3     1  UNL1       -0.3795
     30 H         143.0863  140.7225  164.0947 H       1  UNL1        0.2105
@<TRIPOS>BOND
     1     1     2    2
     2     2    16    1
     3    16    17    1
     4    17    18    1
     5    18    19    1
     6    19    20    1
     7    20    21    1
     8    21    24    1
     9    24    25    1
    10    25    26    1
    11    25    28    1
    12    28    29    1
    13    21    22    1
    14    22    23    1
    15     2     3    1
    16     3     4   ar
    17     4     5   ar
    18     5     6   ar
    19     6     7   ar
    20     7     8   ar
    21     8     9   ar
    22     9    10   ar
    23    10    11   ar
    24     5    12    1
    25    12    13    1
    26    13    14    1
    27    14    15    1
    28    23    18    1
    29    11     3   ar
    30    15     4    1
    31    11     6   ar
    32    26    27    1
    33    29    30    1
@<TRIPOS>MOLECULE
*****
 30 33 0 0 0
SMALL
GASTEIGER

@<TRIPOS>ATOM
      1 O         137.4037  143.4057  162.1816 O.2     1  UNL1       -0.2447
      2 C         138.4073  142.6912  163.0373 C.2     1  UNL1        0.3458
      3 C         138.6345  141.2195  162.8567 C.ar    1  UNL1        0.1283
      4 C         138.9733  140.5313  161.5677 C.ar    1  UNL1        0.2121
      5 N         139.1109  139.0641  161.8479 N.ar    1  UNL1       -0.2989
      6 C         138.8571  138.8456  163.3100 C.ar    1  UNL1        0.0626
      7 C         138.8561  137.6057  164.1542 C.ar    1  UNL1        0.0173
      8 C         138.5606  137.6979  165.6218 C.ar    1  UNL1        0.0015
      9 C         138.2661  139.0300  166.2454 C.ar    1  UNL1        0.0001
     10 C         138.2672  140.2699  165.4012 C.ar    1  UNL1        0.0018
     11 C         138.5626  140.1777  163.9335 C.ar    1  UNL1        0.0266
     12 C         139.4495  138.1167  160.7354 C.3     1  UNL1        0.1127
     13 C         139.6505  138.6365  159.3427 C.3     1  UNL1        0.0719
     14 C         139.5129  140.1036  159.0626 C.3     1  UNL1        0.2091
     15 O         139.1743  141.0510  160.1751 O.3     1  UNL1       -0.4611
     16 O         139.1837  143.4483  164.0735 O.3     1  UNL1       -0.4453
     17 C         140.6000  143.0614  164.3809 C.3     1  UNL1        0.2087
     18 C         141.0261  142.8426  165.8023 C.3     1  UNL1        0.0466
     19 C         142.3866  142.2858  166.1003 C.3     1  UNL1        0.0211
     20 C         142.8127  142.0670  167.5217 C.3     1  UNL1        0.0723
     21 N         141.8783  142.4051  168.6453 N.3     1  UNL1       -0.2706
     22 C         140.5178  142.9620  168.3474 C.3     1  UNL1        0.0723
     23 C         140.0916  143.1807  166.9259 C.3     1  UNL1        0.0211
     24 C         142.3044  142.1864  170.0668 C.3     1  UNL1        0.1043
     25 C         141.7772  141.0110  170.8353 C.3     1  UNL1        0.1555
     26 O         142.4230  140.6096  172.1284 O.3     1  UNL1       -0.3805
     27 H         141.9637  139.8369  172.4930 H       1  UNL1        0.2105
     28 C         140.6043  140.2371  170.3109 C.3     1  UNL1        0.1677
     29 O         139.7489  139.4419  171.2522 O.3     1  UNL1       -0.3795
     30 H         140.2698  138.7139  171.6258 H       1  UNL1        0.2105
@<TRIPOS>BOND
     1     1     2    2
     2     2    16    1
     3    16    17    1
     4    17    18    1
     5    18    19    1
     6    19    20    1
     7    20    21    1
     8    21    24    1
     9    24    25    1
    10    25    26    1
    11    25    28    1
    12    28    29    1
    13    21    22    1
    14    22    23    1
    15     2     3    1
    16     3     4   ar
    17     4     5   ar
    18     5     6   ar
    19     6     7   ar
    20     7     8   ar
    21     8     9   ar
    22     9    10   ar
    23    10    11   ar
    24     5    12    1
    25    12    13    1
    26    13    14    1
    27    14    15    1
    28    23    18    1
    29    11     3   ar
    30    15     4    1
    31    11     6   ar
    32    26    27    1
    33    29    30    1
@<TRIPOS>MOLECULE
*****
 30 33 0 0 0
SMALL
GASTEIGER

@<TRIPOS>ATOM
      1 O         143.2541  142.4605  161.6675 O.2     1  UNL1       -0.2447
      2 C         142.7193  141.6330  162.7986 C.2     1  UNL1        0.3458
      3 C         141.2382  141.4863  162.9856 C.ar    1  UNL1        0.1283
      4 C         140.4121  140.3002  162.5847 C.ar    1  UNL1        0.2121
      5 N         138.9866  140.5809  162.9576 N.ar    1  UNL1       -0.2989
      6 C         138.9316  141.9405  163.5890 C.ar    1  UNL1        0.0626
      7 C         137.7943  142.7412  164.1505 C.ar    1  UNL1        0.0173
      8 C         138.0485  144.1014  164.7291 C.ar    1  UNL1        0.0015
      9 C         139.4401  144.6610  164.7464 C.ar    1  UNL1        0.0001
     10 C         140.5775  143.8603  164.1850 C.ar    1  UNL1        0.0018
     11 C         140.3233  142.5001  163.6063 C.ar    1  UNL1        0.0266
     12 C         137.9227  139.5622  162.6741 C.3     1  UNL1        0.1127
     13 C         138.2843  138.2629  162.0177 C.3     1  UNL1        0.0719
     14 C         139.7098  137.9822  161.6447 C.3     1  UNL1        0.2091
     15 O         140.7737  139.0009  161.9282 O.3     1  UNL1       -0.4611
     16 O         143.6655  140.9523  163.7425 O.3     1  UNL1       -0.4453
     17 C         143.1749  139.8451  164.6277 C.3     1  UNL1        0.2087
     18 C         142.9338  140.1015  166.0858 C.3     1  UNL1        0.0466
     19 C         142.6118  141.4875  166.5604 C.3     1  UNL1        0.0211
     20 C         142.3707  141.7440  168.0185 C.3     1  UNL1        0.0723
     21 N         142.4516  140.6143  169.0021 N.3     1  UNL1       -0.2706
     22 C         142.7735  139.2283  168.5275 C.3     1  UNL1        0.0723
     23 C         143.0147  138.9719  167.0694 C.3     1  UNL1        0.0211
     24 C         142.2104  140.8708  170.4602 C.3     1  UNL1        0.1043
     25 C         140.8124  141.0715  170.9652 C.3     1  UNL1        0.1555
     26 O         140.5211  142.1617  171.9535 O.3     1  UNL1       -0.3805
     27 H         139.5765  142.1542  172.1741 H       1  UNL1        0.2105
     28 C         139.7055  140.1819  170.4820 C.3     1  UNL1        0.1677
     29 O         139.6024  139.8364  169.0261 O.3     1  UNL1       -0.3795
     30 H         139.4009  140.6372  168.5172 H       1  UNL1        0.2105
@<TRIPOS>BOND
     1     1     2    2
     2     2    16    1
     3    16    17    1
     4    17    18    1
     5    18    19    1
     6    19    20    1
     7    20    21    1
     8    21    24    1
     9    24    25    1
    10    25    26    1
    11    25    28    1
    12    28    29    1
    13    21    22    1
    14    22    23    1
    15     2     3    1
    16     3     4   ar
    17     4     5   ar
    18     5     6   ar
    19     6     7   ar
    20     7     8   ar
    21     8     9   ar
    22     9    10   ar
    23    10    11   ar
    24     5    12    1
    25    12    13    1
    26    13    14    1
    27    14    15    1
    28    23    18    1
    29    11     3   ar
    30    15     4    1
    31    11     6   ar
    32    26    27    1
    33    29    30    1
