@<TRIPOS>MOLECULE
*****
 35 39 0 0 0
SMALL
GASTEIGER

@<TRIPOS>ATOM
      1 C         141.5894  143.2392  161.5694 C.ar    1  UNL1        0.0537
      2 C         141.9718  142.2316  160.5262 C.ar    1  UNL1        0.0060
      3 C         142.4632  140.8755  160.9378 C.ar    1  UNL1        0.0173
      4 C         142.5723  140.5271  162.3927 C.ar    1  UNL1        0.0594
      5 C         142.1899  141.5347  163.4360 C.ar    1  UNL1        0.0130
      6 C         141.6984  142.8908  163.0243 C.ar    1  UNL1        0.0057
      7 C         142.4014  140.9101  164.7832 C.ar    1  UNL1       -0.0091
      8 C         142.9146  139.5164  164.5726 C.ar    1  UNL1        0.0331
      9 N         143.0202  139.2796  163.0952 N.ar    1  UNL1       -0.3289
     10 C         143.4910  138.0172  162.4360 C.3     1  UNL1        0.1301
     11 C         143.2194  138.6430  165.7533 C.3     1  UNL1        0.0435
     12 C         143.0111  139.1632  167.1448 C.3     1  UNL1        0.0066
     13 C         142.4979  140.5569  167.3554 C.3     1  UNL1        0.0049
     14 C         142.1931  141.4303  166.1746 C.3     1  UNL1        0.0275
     15 C         142.2896  141.0772  168.7468 C.3     1  UNL1        0.0053
     16 C         141.4324  140.3138  169.7124 C.3     1  UNL1        0.0322
     17 C         141.2241  140.8340  171.1038 C.3     1  UNL1        0.1422
     18 O         141.8728  142.1176  171.5295 O.3     1  UNL1       -0.3538
     19 C         142.7300  142.8811  170.5638 C.3     1  UNL1        0.1422
     20 C         142.9384  142.3609  169.1725 C.3     1  UNL1        0.0322
     21 C         139.5465  146.6417  161.5525 C.3     1  UNL1        0.1152
     22 N         140.0380  145.2855  161.9641 N.am    1  UNL1       -0.2743
     23 C         141.0979  144.5954  161.1578 C.2     1  UNL1        0.2491
     24 O         141.6665  145.2613  159.9399 O.2     1  UNL1       -0.2699
     25 C         139.4694  144.6196  163.1820 C.3     1  UNL1        0.0943
     26 C         138.0050  144.3014  163.2481 C.3     1  UNL1        0.0311
     27 C         137.5279  143.1288  164.0527 C.3     1  UNL1        0.0868
     28 C         137.7750  141.7328  163.5629 C.2     1  UNL1        0.2226
     29 O         137.0480  141.2223  162.3543 O.2     1  UNL1       -0.2751
     30 N         138.7493  140.8472  164.2817 N.am    1  UNL1       -0.3014
     31 H         139.2265  141.1823  165.0750 H       1  UNL1        0.1495
     32 C         138.9964  139.4512  163.7920 C.3     1  UNL1        0.1310
     33 C         139.4497  138.8463  162.4963 C.3     1  UNL1        0.1642
     34 O         139.3460  137.4769  163.0993 O.3     1  UNL1       -0.3501
     35 C         138.8927  138.0816  164.3949 C.3     1  UNL1        0.1642
@<TRIPOS>BOND
     1    21    22    1
     2    22    25    1
     3    25    26    1
     4    26    27    1
     5    27    28    1
     6    28    29    2
     7    28    30   am
     8    30    32    1
     9    32    33    1
    10    33    34    1
    11    34    35    1
    12    22    23   am
    13    23    24    2
    14    23     1    1
    15     1     2   ar
    16     2     3   ar
    17     3     4   ar
    18     4     5   ar
    19     5     6   ar
    20     5     7   ar
    21     7     8   ar
    22     8     9   ar
    23     9    10    1
    24     8    11    1
    25    11    12    1
    26    12    13    1
    27    13    15    1
    28    15    16    1
    29    16    17    1
    30    17    18    1
    31    18    19    1
    32    19    20    1
    33    13    14    1
    34    35    32    1
    35     6     1   ar
    36    14     7    1
    37     9     4   ar
    38    20    15    1
    39    30    31    1
@<TRIPOS>MOLECULE
*****
 35 39 0 0 0
SMALL
GASTEIGER

@<TRIPOS>ATOM
      1 C         140.0920  143.0741  160.8013 C.ar    1  UNL1        0.0537
      2 C         139.5152  141.9037  160.0615 C.ar    1  UNL1        0.0060
      3 C         139.1794  140.6416  160.7994 C.ar    1  UNL1        0.0173
      4 C         139.4204  140.5501  162.2770 C.ar    1  UNL1        0.0594
      5 C         139.9972  141.7205  163.0169 C.ar    1  UNL1        0.0130
      6 C         140.3330  142.9825  162.2790 C.ar    1  UNL1        0.0057
      7 C         140.1233  141.3389  164.4620 C.ar    1  UNL1       -0.0091
      8 C         139.6244  139.9326  164.6153 C.ar    1  UNL1        0.0331
      9 N         139.1900  139.4450  163.2650 N.ar    1  UNL1       -0.3289
     10 C         138.6245  138.0904  162.9566 C.3     1  UNL1        0.1301
     11 C         139.6303  139.2777  165.9648 C.3     1  UNL1        0.0435
     12 C         140.1350  140.0291  167.1610 C.3     1  UNL1        0.0066
     13 C         140.6338  141.4354  167.0077 C.3     1  UNL1        0.0049
     14 C         140.6280  142.0903  165.6581 C.3     1  UNL1        0.0275
     15 C         141.1385  142.1868  168.2038 C.3     1  UNL1        0.0053
     16 C         140.2852  143.2434  168.8405 C.3     1  UNL1        0.0322
     17 C         140.7899  143.9948  170.0366 C.3     1  UNL1        0.1422
     18 O         142.1477  143.6896  170.5959 O.3     1  UNL1       -0.3538
     19 C         143.0010  142.6330  169.9592 C.3     1  UNL1        0.1422
     20 C         142.4964  141.8816  168.7631 C.3     1  UNL1        0.0322
     21 C         141.8455  145.5943  158.2865 C.3     1  UNL1        0.1152
     22 N         141.5096  144.3322  159.0244 N.am    1  UNL1       -0.2743
     23 C         140.4279  144.3362  160.0634 C.2     1  UNL1        0.2491
     24 O         139.6819  145.6022  160.3647 O.2     1  UNL1       -0.2699
     25 C         142.2556  143.0662  158.7231 C.3     1  UNL1        0.0943
     26 C         143.7206  143.1166  158.4048 C.3     1  UNL1        0.0311
     27 C         144.7216  142.6012  159.3960 C.3     1  UNL1        0.0868
     28 C         144.3568  142.5013  160.8475 C.2     1  UNL1        0.2226
     29 O         143.6412  141.2863  161.3590 O.2     1  UNL1       -0.2751
     30 N         144.7075  143.6164  161.7874 N.am    1  UNL1       -0.3014
     31 H         145.1772  144.4139  161.4517 H       1  UNL1        0.1495
     32 C         144.3427  143.5165  163.2389 C.3     1  UNL1        0.1310
     33 C         144.7783  142.6525  164.3851 C.3     1  UNL1        0.1642
     34 O         143.8267  143.3752  165.2917 O.3     1  UNL1       -0.3501
     35 C         143.3911  144.2393  164.1456 C.3     1  UNL1        0.1642
@<TRIPOS>BOND
     1    21    22    1
     2    22    25    1
     3    25    26    1
     4    26    27    1
     5    27    28    1
     6    28    29    2
     7    28    30   am
     8    30    32    1
     9    32    33    1
    10    33    34    1
    11    34    35    1
    12    22    23   am
    13    23    24    2
    14    23     1    1
    15     1     2   ar
    16     2     3   ar
    17     3     4   ar
    18     4     5   ar
    19     5     6   ar
    20     5     7   ar
    21     7     8   ar
    22     8     9   ar
    23     9    10    1
    24     8    11    1
    25    11    12    1
    26    12    13    1
    27    13    15    1
    28    15    16    1
    29    16    17    1
    30    17    18    1
    31    18    19    1
    32    19    20    1
    33    13    14    1
    34    35    32    1
    35     6     1   ar
    36    14     7    1
    37     9     4   ar
    38    20    15    1
    39    30    31    1
@<TRIPOS>MOLECULE
*****
 35 39 0 0 0
SMALL
GASTEIGER

@<TRIPOS>ATOM
      1 C         140.7600  140.5163  159.4922 C.ar    1  UNL1        0.0537
      2 C         140.6454  141.6947  158.5712 C.ar    1  UNL1        0.0060
      3 C         140.4011  143.0641  159.1324 C.ar    1  UNL1        0.0173
      4 C         140.2714  143.2551  160.6145 C.ar    1  UNL1        0.0594
      5 C         140.3859  142.0767  161.5355 C.ar    1  UNL1        0.0130
      6 C         140.6302  140.7073  160.9743 C.ar    1  UNL1        0.0057
      7 C         140.2160  142.5694  162.9420 C.ar    1  UNL1       -0.0091
      8 C         139.9964  144.0523  162.8904 C.ar    1  UNL1        0.0331
      9 N         140.0306  144.4762  161.4519 N.ar    1  UNL1       -0.3289
     10 C         139.8549  145.8753  160.9406 C.3     1  UNL1        0.1301
     11 C         139.7936  144.8251  164.1598 C.3     1  UNL1        0.0435
     12 C         139.8104  144.1150  165.4811 C.3     1  UNL1        0.0066
     13 C         140.0300  142.6321  165.5327 C.3     1  UNL1        0.0049
     14 C         140.2328  141.8592  164.2631 C.3     1  UNL1        0.0275
     15 C         140.0469  141.9219  166.8538 C.3     1  UNL1        0.0053
     16 C         139.5383  140.5144  166.9553 C.3     1  UNL1        0.0322
     17 C         139.5551  139.8043  168.2764 C.3     1  UNL1        0.1422
     18 O         140.0806  140.5016  169.4960 O.3     1  UNL1       -0.3538
     19 C         140.5892  141.9090  169.3946 C.3     1  UNL1        0.1422
     20 C         140.5724  142.6192  168.0735 C.3     1  UNL1        0.0322
     21 C         142.6524  137.2841  158.1797 C.3     1  UNL1        0.1152
     22 N         142.4080  138.6536  158.7409 N.am    1  UNL1       -0.2743
     23 C         141.0043  139.1468  158.9310 C.2     1  UNL1        0.2491
     24 O         139.8448  138.2705  158.5599 O.2     1  UNL1       -0.2699
     25 C         143.5676  139.5299  159.1120 C.3     1  UNL1        0.0943
     26 C         144.1797  139.4255  160.4775 C.3     1  UNL1        0.0311
     27 C         143.8709  138.2447  161.3495 C.3     1  UNL1        0.0868
     28 C         142.7628  138.3260  162.3572 C.2     1  UNL1        0.2226
     29 O         142.8323  139.3305  163.4689 O.2     1  UNL1       -0.2751
     30 N         141.5852  137.4027  162.2531 N.am    1  UNL1       -0.3014
     31 H         141.5396  136.7434  161.5234 H       1  UNL1        0.1495
     32 C         140.4770  137.4840  163.2607 C.3     1  UNL1        0.1310
     33 C         138.9892  137.6609  163.1893 C.3     1  UNL1        0.1642
     34 O         138.9099  137.5989  164.6858 O.3     1  UNL1       -0.3501
     35 C         140.3977  137.4220  164.7574 C.3     1  UNL1        0.1642
@<TRIPOS>BOND
     1    21    22    1
     2    22    25    1
     3    25    26    1
     4    26    27    1
     5    27    28    1
     6    28    29    2
     7    28    30   am
     8    30    32    1
     9    32    33    1
    10    33    34    1
    11    34    35    1
    12    22    23   am
    13    23    24    2
    14    23     1    1
    15     1     2   ar
    16     2     3   ar
    17     3     4   ar
    18     4     5   ar
    19     5     6   ar
    20     5     7   ar
    21     7     8   ar
    22     8     9   ar
    23     9    10    1
    24     8    11    1
    25    11    12    1
    26    12    13    1
    27    13    15    1
    28    15    16    1
    29    16    17    1
    30    17    18    1
    31    18    19    1
    32    19    20    1
    33    13    14    1
    34    35    32    1
    35     6     1   ar
    36    14     7    1
    37     9     4   ar
    38    20    15    1
    39    30    31    1
@<TRIPOS>MOLECULE
*****
 35 39 0 0 0
SMALL
GASTEIGER

@<TRIPOS>ATOM
      1 C         139.9733  143.2569  160.7690 C.ar    1  UNL1        0.0537
      2 C         139.3615  142.1114  160.0184 C.ar    1  UNL1        0.0060
      3 C         139.0100  140.8443  160.7400 C.ar    1  UNL1        0.0173
      4 C         139.2703  140.7226  162.2122 C.ar    1  UNL1        0.0594
      5 C         139.8821  141.8681  162.9628 C.ar    1  UNL1        0.0130
      6 C         140.2336  143.1353  162.2412 C.ar    1  UNL1        0.0057
      7 C         140.0211  141.4595  164.3994 C.ar    1  UNL1       -0.0091
      8 C         139.4951  140.0614  164.5366 C.ar    1  UNL1        0.0331
      9 N         139.0311  139.6060  163.1849 N.ar    1  UNL1       -0.3289
     10 C         138.4330  138.2688  162.8624 C.3     1  UNL1        0.1301
     11 C         139.5067  139.3838  165.8747 C.3     1  UNL1        0.0435
     12 C         140.0442  140.1041  167.0757 C.3     1  UNL1        0.0066
     13 C         140.5701  141.5022  166.9385 C.3     1  UNL1        0.0049
     14 C         140.5586  142.1799  165.6003 C.3     1  UNL1        0.0275
     15 C         141.1076  142.2226  168.1393 C.3     1  UNL1        0.0053
     16 C         142.4931  141.9278  168.6329 C.3     1  UNL1        0.0322
     17 C         143.0306  142.6481  169.8338 C.3     1  UNL1        0.1422
     18 O         142.1827  143.6633  170.5410 O.3     1  UNL1       -0.3538
     19 C         140.7973  143.9582  170.0475 C.3     1  UNL1        0.1422
     20 C         140.2597  143.2379  168.8467 C.3     1  UNL1        0.0322
     21 C         141.7055  145.7723  158.2346 C.3     1  UNL1        0.1152
     22 N         141.3539  144.5051  158.9562 N.am    1  UNL1       -0.2743
     23 C         140.3249  144.5241  160.0474 C.2     1  UNL1        0.2491
     24 O         139.6474  145.8103  160.4170 O.2     1  UNL1       -0.2699
     25 C         142.0315  143.2189  158.5866 C.3     1  UNL1        0.0943
     26 C         143.1745  142.7088  159.4133 C.3     1  UNL1        0.0311
     27 C         143.6921  141.3172  159.1998 C.3     1  UNL1        0.0868
     28 C         143.6391  140.3177  160.3169 C.2     1  UNL1        0.2226
     29 O         144.3662  139.0118  160.1900 O.2     1  UNL1       -0.2751
     30 N         142.8591  140.6239  161.5610 N.am    1  UNL1       -0.3014
     31 H         142.3819  141.4810  161.6443 H       1  UNL1        0.1495
     32 C         142.8061  139.6244  162.6781 C.3     1  UNL1        0.1310
     33 C         142.3014  138.2191  162.8210 C.3     1  UNL1        0.1642
     34 O         142.7311  138.2108  164.2580 O.3     1  UNL1       -0.3501
     35 C         143.2358  139.6161  164.1152 C.3     1  UNL1        0.1642
@<TRIPOS>BOND
     1    21    22    1
     2    22    25    1
     3    25    26    1
     4    26    27    1
     5    27    28    1
     6    28    29    2
     7    28    30   am
     8    30    32    1
     9    32    33    1
    10    33    34    1
    11    34    35    1
    12    22    23   am
    13    23    24    2
    14    23     1    1
    15     1     2   ar
    16     2     3   ar
    17     3     4   ar
    18     4     5   ar
    19     5     6   ar
    20     5     7   ar
    21     7     8   ar
    22     8     9   ar
    23     9    10    1
    24     8    11    1
    25    11    12    1
    26    12    13    1
    27    13    15    1
    28    15    16    1
    29    16    17    1
    30    17    18    1
    31    18    19    1
    32    19    20    1
    33    13    14    1
    34    35    32    1
    35     6     1   ar
    36    14     7    1
    37     9     4   ar
    38    20    15    1
    39    30    31    1
@<TRIPOS>MOLECULE
*****
 35 39 0 0 0
SMALL
GASTEIGER

@<TRIPOS>ATOM
      1 C         141.9133  141.1183  160.6364 C.ar    1  UNL1        0.0537
      2 C         141.1254  140.0089  160.0052 C.ar    1  UNL1        0.0060
      3 C         140.2565  139.1290  160.8541 C.ar    1  UNL1        0.0173
      4 C         140.1754  139.3585  162.3342 C.ar    1  UNL1        0.0594
      5 C         140.9633  140.4679  162.9654 C.ar    1  UNL1        0.0130
      6 C         141.8322  141.3478  162.1165 C.ar    1  UNL1        0.0057
      7 C         140.6851  140.4536  164.4393 C.ar    1  UNL1       -0.0091
      8 C         139.7252  139.3353  164.7190 C.ar    1  UNL1        0.0331
      9 N         139.4102  138.6585  163.4180 N.ar    1  UNL1       -0.3289
     10 C         138.4914  137.4873  163.2332 C.3     1  UNL1        0.1301
     11 C         139.2621  139.0778  166.1223 C.3     1  UNL1        0.0435
     12 C         139.7588  139.9386  167.2459 C.3     1  UNL1        0.0066
     13 C         140.7186  141.0569  166.9662 C.3     1  UNL1        0.0049
     14 C         141.1818  141.3143  165.5628 C.3     1  UNL1        0.0275
     15 C         141.2153  141.9176  168.0897 C.3     1  UNL1        0.0053
     16 C         142.6207  141.7607  168.5899 C.3     1  UNL1        0.0322
     17 C         143.1174  142.6215  169.7134 C.3     1  UNL1        0.1422
     18 O         142.2087  143.6391  170.3367 O.3     1  UNL1       -0.3538
     19 C         140.8034  143.7961  169.8365 C.3     1  UNL1        0.1422
     20 C         140.3066  142.9354  168.7131 C.3     1  UNL1        0.0322
     21 C         143.0285  143.9067  158.0418 C.3     1  UNL1        0.1152
     22 N         142.1594  143.0268  158.8908 N.am    1  UNL1       -0.2743
     23 C         142.7823  141.9982  159.7875 C.2     1  UNL1        0.2491
     24 O         144.2741  141.8496  159.8353 O.2     1  UNL1       -0.2699
     25 C         140.6676  143.1754  158.8429 C.3     1  UNL1        0.0943
     26 C         139.9789  144.1304  159.7723 C.3     1  UNL1        0.0311
     27 C         140.7721  145.1817  160.4904 C.3     1  UNL1        0.0868
     28 C         141.4302  144.8610  161.7996 C.2     1  UNL1        0.2226
     29 O         140.5919  144.5715  163.0093 O.2     1  UNL1       -0.2751
     30 N         142.9265  144.8298  161.8991 N.am    1  UNL1       -0.3014
     31 H         143.4767  145.0198  161.1051 H       1  UNL1        0.1495
     32 C         143.5846  144.5091  163.2083 C.3     1  UNL1        0.1310
     33 C         143.7752  145.2369  164.5061 C.3     1  UNL1        0.1642
     34 O         144.5152  144.0556  165.0599 O.3     1  UNL1       -0.3501
     35 C         144.3247  143.3278  163.7622 C.3     1  UNL1        0.1642
@<TRIPOS>BOND
     1    21    22    1
     2    22    25    1
     3    25    26    1
     4    26    27    1
     5    27    28    1
     6    28    29    2
     7    28    30   am
     8    30    32    1
     9    32    33    1
    10    33    34    1
    11    34    35    1
    12    22    23   am
    13    23    24    2
    14    23     1    1
    15     1     2   ar
    16     2     3   ar
    17     3     4   ar
    18     4     5   ar
    19     5     6   ar
    20     5     7   ar
    21     7     8   ar
    22     8     9   ar
    23     9    10    1
    24     8    11    1
    25    11    12    1
    26    12    13    1
    27    13    15    1
    28    15    16    1
    29    16    17    1
    30    17    18    1
    31    18    19    1
    32    19    20    1
    33    13    14    1
    34    35    32    1
    35     6     1   ar
    36    14     7    1
    37     9     4   ar
    38    20    15    1
    39    30    31    1
@<TRIPOS>MOLECULE
*****
 35 39 0 0 0
SMALL
GASTEIGER

@<TRIPOS>ATOM
      1 C         141.9310  141.0901  160.1525 C.ar    1  UNL1        0.0537
      2 C         141.4365  142.2955  159.4091 C.ar    1  UNL1        0.0060
      3 C         140.7912  143.4248  160.1563 C.ar    1  UNL1        0.0173
      4 C         140.6405  143.3487  161.6468 C.ar    1  UNL1        0.0594
      5 C         141.1350  142.1434  162.3901 C.ar    1  UNL1        0.0130
      6 C         141.7803  141.0141  161.6429 C.ar    1  UNL1        0.0057
      7 C         140.8508  142.3493  163.8484 C.ar    1  UNL1       -0.0091
      8 C         140.1806  143.6820  164.0064 C.ar    1  UNL1        0.0331
      9 N         140.0506  144.2997  162.6457 N.ar    1  UNL1       -0.3289
     10 C         139.4383  145.6339  162.3380 C.3     1  UNL1        0.1301
     11 C         139.7752  144.1608  165.3689 C.3     1  UNL1        0.0435
     12 C         140.0401  143.3069  166.5735 C.3     1  UNL1        0.0066
     13 C         140.7103  141.9743  166.4155 C.3     1  UNL1        0.0049
     14 C         141.1157  141.4955  165.0529 C.3     1  UNL1        0.0275
     15 C         140.9752  141.1205  167.6200 C.3     1  UNL1        0.0053
     16 C         140.0687  141.2035  168.8122 C.3     1  UNL1        0.0322
     17 C         140.3336  140.3497  170.0167 C.3     1  UNL1        0.1422
     18 O         141.5049  139.4129  170.0290 O.3     1  UNL1       -0.3538
     19 C         142.4114  139.3298  168.8368 C.3     1  UNL1        0.1422
     20 C         142.1466  140.1836  167.6323 C.3     1  UNL1        0.0322
     21 C         142.3794  137.7206  158.1041 C.3     1  UNL1        0.1152
     22 N         141.7341  138.8500  158.8513 N.am    1  UNL1       -0.2743
     23 C         142.5763  139.9607  159.4053 C.2     1  UNL1        0.2491
     24 O         144.0637  139.9422  159.2122 O.2     1  UNL1       -0.2699
     25 C         140.2467  138.8685  159.0443 C.3     1  UNL1        0.0943
     26 C         139.6187  138.0251  160.1140 C.3     1  UNL1        0.0311
     27 C         140.1597  138.0621  161.5126 C.3     1  UNL1        0.0868
     28 C         139.2326  138.2890  162.6696 C.2     1  UNL1        0.2226
     29 O         137.8786  138.8918  162.4387 O.2     1  UNL1       -0.2751
     30 N         139.6595  137.9133  164.0577 N.am    1  UNL1       -0.3014
     31 H         140.5482  137.5177  164.2092 H       1  UNL1        0.1495
     32 C         138.7324  138.1402  165.2147 C.3     1  UNL1        0.1310
     33 C         138.1541  139.3487  165.8894 C.3     1  UNL1        0.1642
     34 O         137.4212  138.4612  166.8511 O.3     1  UNL1       -0.3501
     35 C         137.9994  137.2527  166.1765 C.3     1  UNL1        0.1642
@<TRIPOS>BOND
     1    21    22    1
     2    22    25    1
     3    25    26    1
     4    26    27    1
     5    27    28    1
     6    28    29    2
     7    28    30   am
     8    30    32    1
     9    32    33    1
    10    33    34    1
    11    34    35    1
    12    22    23   am
    13    23    24    2
    14    23     1    1
    15     1     2   ar
    16     2     3   ar
    17     3     4   ar
    18     4     5   ar
    19     5     6   ar
    20     5     7   ar
    21     7     8   ar
    22     8     9   ar
    23     9    10    1
    24     8    11    1
    25    11    12    1
    26    12    13    1
    27    13    15    1
    28    15    16    1
    29    16    17    1
    30    17    18    1
    31    18    19    1
    32    19    20    1
    33    13    14    1
    34    35    32    1
    35     6     1   ar
    36    14     7    1
    37     9     4   ar
    38    20    15    1
    39    30    31    1
@<TRIPOS>MOLECULE
*****
 35 39 0 0 0
SMALL
GASTEIGER

@<TRIPOS>ATOM
      1 C         140.3964  140.6197  166.8982 C.ar    1  UNL1        0.0537
      2 C         141.5505  140.9733  167.7886 C.ar    1  UNL1        0.0060
      3 C         142.6499  141.8558  167.2763 C.ar    1  UNL1        0.0173
      4 C         142.5952  142.3847  165.8737 C.ar    1  UNL1        0.0594
      5 C         141.4410  142.0310  164.9833 C.ar    1  UNL1        0.0130
      6 C         140.3416  141.1485  165.4956 C.ar    1  UNL1        0.0057
      7 C         141.6580  142.6967  163.6568 C.ar    1  UNL1       -0.0091
      8 C         142.9463  143.4618  163.7273 C.ar    1  UNL1        0.0331
      9 N         143.5256  143.2690  165.0974 N.ar    1  UNL1       -0.3289
     10 C         144.8096  143.8571  165.6026 C.3     1  UNL1        0.1301
     11 C         143.4255  144.2352  162.5347 C.3     1  UNL1        0.0435
     12 C         142.6165  144.2435  161.2716 C.3     1  UNL1        0.0066
     13 C         141.3282  143.4784  161.2011 C.3     1  UNL1        0.0049
     14 C         140.8490  142.7050  162.3937 C.3     1  UNL1        0.0275
     15 C         140.5191  143.4867  159.9381 C.3     1  UNL1        0.0053
     16 C         139.3629  142.5439  159.7818 C.3     1  UNL1        0.0322
     17 C         138.5538  142.5522  158.5188 C.3     1  UNL1        0.1422
     18 O         138.9009  143.5033  157.4120 O.3     1  UNL1       -0.3538
     19 C         140.0570  144.4461  157.5683 C.3     1  UNL1        0.1422
     20 C         140.8661  144.4378  158.8313 C.3     1  UNL1        0.0322
     21 C         137.5254  137.8814  167.0000 C.3     1  UNL1        0.1152
     22 N         138.6249  138.7640  166.4877 N.am    1  UNL1       -0.2743
     23 C         139.2969  139.7371  167.4104 C.2     1  UNL1        0.2491
     24 O         138.8694  139.8278  168.8454 O.2     1  UNL1       -0.2699
     25 C         139.0524  138.6733  165.0528 C.3     1  UNL1        0.0943
     26 C         139.6244  137.3930  164.5201 C.3     1  UNL1        0.0311
     27 C         141.1105  137.2284  164.3998 C.3     1  UNL1        0.0868
     28 C         141.9273  138.2763  163.7036 C.2     1  UNL1        0.2226
     29 O         141.3600  139.0079  162.5234 O.2     1  UNL1       -0.2751
     30 N         143.3114  138.5926  164.1876 N.am    1  UNL1       -0.3014
     31 H         143.6837  138.1124  164.9622 H       1  UNL1        0.1495
     32 C         144.1281  139.6406  163.4915 C.3     1  UNL1        0.1310
     33 C         144.1596  140.2137  162.1056 C.3     1  UNL1        0.1642
     34 O         145.2832  141.1226  162.5069 O.3     1  UNL1       -0.3501
     35 C         145.2518  140.5496  163.8928 C.3     1  UNL1        0.1642
@<TRIPOS>BOND
     1    21    22    1
     2    22    25    1
     3    25    26    1
     4    26    27    1
     5    27    28    1
     6    28    29    2
     7    28    30   am
     8    30    32    1
     9    32    33    1
    10    33    34    1
    11    34    35    1
    12    22    23   am
    13    23    24    2
    14    23     1    1
    15     1     2   ar
    16     2     3   ar
    17     3     4   ar
    18     4     5   ar
    19     5     6   ar
    20     5     7   ar
    21     7     8   ar
    22     8     9   ar
    23     9    10    1
    24     8    11    1
    25    11    12    1
    26    12    13    1
    27    13    15    1
    28    15    16    1
    29    16    17    1
    30    17    18    1
    31    18    19    1
    32    19    20    1
    33    13    14    1
    34    35    32    1
    35     6     1   ar
    36    14     7    1
    37     9     4   ar
    38    20    15    1
    39    30    31    1
@<TRIPOS>MOLECULE
*****
 35 39 0 0 0
SMALL
GASTEIGER

@<TRIPOS>ATOM
      1 C         142.4682  139.6527  159.5450 C.ar    1  UNL1        0.0537
      2 C         143.4414  140.6983  159.0873 C.ar    1  UNL1        0.0060
      3 C         143.8358  141.8117  160.0118 C.ar    1  UNL1        0.0173
      4 C         143.2571  141.8794  161.3940 C.ar    1  UNL1        0.0594
      5 C         142.2839  140.8338  161.8517 C.ar    1  UNL1        0.0130
      6 C         141.8895  139.7204  160.9272 C.ar    1  UNL1        0.0057
      7 C         141.8820  141.1592  163.2597 C.ar    1  UNL1       -0.0091
      8 C         142.6069  142.4060  163.6723 C.ar    1  UNL1        0.0331
      9 N         143.4567  142.8512  162.5192 N.ar    1  UNL1       -0.3289
     10 C         144.3494  144.0563  162.4954 C.3     1  UNL1        0.1301
     11 C         142.3993  142.9749  165.0446 C.3     1  UNL1        0.0435
     12 C         141.4669  142.2970  166.0044 C.3     1  UNL1        0.0066
     13 C         140.7421  141.0502  165.5919 C.3     1  UNL1        0.0049
     14 C         140.9497  140.4813  164.2195 C.3     1  UNL1        0.0275
     15 C         139.8098  140.3723  166.5517 C.3     1  UNL1        0.0053
     16 C         138.7630  139.4278  166.0398 C.3     1  UNL1        0.0322
     17 C         137.8307  138.7499  166.9995 C.3     1  UNL1        0.1422
     18 O         137.9451  139.0165  168.4711 O.3     1  UNL1       -0.3538
     19 C         138.9919  139.9610  168.9830 C.3     1  UNL1        0.1422
     20 C         139.9242  140.6390  168.0234 C.3     1  UNL1        0.0322
     21 C         140.5343  137.6108  156.7447 C.3     1  UNL1        0.1152
     22 N         140.9288  138.7243  157.6692 N.am    1  UNL1       -0.2743
     23 C         142.0737  138.5392  158.6205 C.2     1  UNL1        0.2491
     24 O         142.8241  137.2407  158.6473 O.2     1  UNL1       -0.2699
     25 C         140.1784  140.0228  157.6424 C.3     1  UNL1        0.0943
     26 C         138.7626  140.0811  158.1347 C.3     1  UNL1        0.0311
     27 C         138.4841  140.2542  159.5984 C.3     1  UNL1        0.0868
     28 C         138.5165  141.6229  160.2113 C.2     1  UNL1        0.2226
     29 O         138.3830  142.8375  159.3414 O.2     1  UNL1       -0.2751
     30 N         138.6824  141.7769  161.6941 N.am    1  UNL1       -0.3014
     31 H         138.7700  140.9797  162.2651 H       1  UNL1        0.1495
     32 C         138.7147  143.1456  162.3070 C.3     1  UNL1        0.1310
     33 C         139.7180  144.2593  162.3629 C.3     1  UNL1        0.1642
     34 O         138.7605  145.0812  163.1738 O.3     1  UNL1       -0.3501
     35 C         137.7572  143.9676  163.1180 C.3     1  UNL1        0.1642
@<TRIPOS>BOND
     1    21    22    1
     2    22    25    1
     3    25    26    1
     4    26    27    1
     5    27    28    1
     6    28    29    2
     7    28    30   am
     8    30    32    1
     9    32    33    1
    10    33    34    1
    11    34    35    1
    12    22    23   am
    13    23    24    2
    14    23     1    1
    15     1     2   ar
    16     2     3   ar
    17     3     4   ar
    18     4     5   ar
    19     5     6   ar
    20     5     7   ar
    21     7     8   ar
    22     8     9   ar
    23     9    10    1
    24     8    11    1
    25    11    12    1
    26    12    13    1
    27    13    15    1
    28    15    16    1
    29    16    17    1
    30    17    18    1
    31    18    19    1
    32    19    20    1
    33    13    14    1
    34    35    32    1
    35     6     1   ar
    36    14     7    1
    37     9     4   ar
    38    20    15    1
    39    30    31    1
@<TRIPOS>MOLECULE
*****
 35 39 0 0 0
SMALL
GASTEIGER

@<TRIPOS>ATOM
      1 C         141.7839  143.6111  160.4995 C.ar    1  UNL1        0.0537
      2 C         141.3181  142.1876  160.4176 C.ar    1  UNL1        0.0060
      3 C         140.3668  141.7709  159.3354 C.ar    1  UNL1        0.0173
      4 C         139.8814  142.7776  158.3349 C.ar    1  UNL1        0.0594
      5 C         140.3472  144.2010  158.4167 C.ar    1  UNL1        0.0130
      6 C         141.2985  144.6178  159.4990 C.ar    1  UNL1        0.0057
      7 C         139.7023  144.9648  157.2984 C.ar    1  UNL1       -0.0091
      8 C         138.8378  144.0134  156.5254 C.ar    1  UNL1        0.0331
      9 N         138.9485  142.6616  157.1659 N.ar    1  UNL1       -0.3289
     10 C         138.2492  141.4130  156.7166 C.3     1  UNL1        0.1301
     11 C         138.0616  144.5009  155.3380 C.3     1  UNL1        0.0435
     12 C         138.1498  145.9399  154.9237 C.3     1  UNL1        0.0066
     13 C         139.0143  146.8913  155.6967 C.3     1  UNL1        0.0049
     14 C         139.7905  146.4038  156.8841 C.3     1  UNL1        0.0275
     15 C         139.1025  148.3303  155.2824 C.3     1  UNL1        0.0053
     16 C         139.8188  148.7043  154.0187 C.3     1  UNL1        0.0322
     17 C         139.9070  150.1432  153.6044 C.3     1  UNL1        0.1422
     18 O         139.2789  151.2081  154.4537 O.3     1  UNL1       -0.3538
     19 C         138.5626  150.8341  155.7174 C.3     1  UNL1        0.1422
     20 C         138.4744  149.3952  156.1318 C.3     1  UNL1        0.0322
     21 C         143.1870  145.2308  163.8399 C.3     1  UNL1        0.1152
     22 N         142.2357  144.8140  162.7576 N.am    1  UNL1       -0.2743
     23 C         142.7352  144.0279  161.5818 C.2     1  UNL1        0.2491
     24 O         144.1860  143.6586  161.4882 O.2     1  UNL1       -0.2699
     25 C         140.7849  145.1832  162.8511 C.3     1  UNL1        0.0943
     26 C         139.8709  144.4098  163.7548 C.3     1  UNL1        0.0311
     27 C         138.8792  143.4468  163.1724 C.3     1  UNL1        0.0868
     28 C         139.1290  141.9702  163.2570 C.2     1  UNL1        0.2226
     29 O         140.4594  141.4603  163.7262 O.2     1  UNL1       -0.2751
     30 N         138.0485  141.0034  162.8725 N.am    1  UNL1       -0.3014
     31 H         137.1753  141.3381  162.5646 H       1  UNL1        0.1495
     32 C         138.2983  139.5269  162.9571 C.3     1  UNL1        0.1310
     33 C         138.7240  138.5836  164.0429 C.3     1  UNL1        0.1642
     34 O         138.6516  137.4386  163.0768 O.3     1  UNL1       -0.3501
     35 C         138.2258  138.3818  161.9909 C.3     1  UNL1        0.1642
@<TRIPOS>BOND
     1    21    22    1
     2    22    25    1
     3    25    26    1
     4    26    27    1
     5    27    28    1
     6    28    29    2
     7    28    30   am
     8    30    32    1
     9    32    33    1
    10    33    34    1
    11    34    35    1
    12    22    23   am
    13    23    24    2
    14    23     1    1
    15     1     2   ar
    16     2     3   ar
    17     3     4   ar
    18     4     5   ar
    19     5     6   ar
    20     5     7   ar
    21     7     8   ar
    22     8     9   ar
    23     9    10    1
    24     8    11    1
    25    11    12    1
    26    12    13    1
    27    13    15    1
    28    15    16    1
    29    16    17    1
    30    17    18    1
    31    18    19    1
    32    19    20    1
    33    13    14    1
    34    35    32    1
    35     6     1   ar
    36    14     7    1
    37     9     4   ar
    38    20    15    1
    39    30    31    1
