@<TRIPOS>MOLECULE
*****
 28 31 0 0 0
SMALL
GASTEIGER

@<TRIPOS>ATOM
      1 C         142.5845  138.5198  160.5898 C.2     1  UNL1       -0.0369
      2 C         143.8049  139.3918  160.5880 C.2     1  UNL1       -0.0050
      3 C         144.4591  139.7690  161.8841 C.2     1  UNL1        0.0392
      4 C         143.8928  139.2741  163.1819 C.2     1  UNL1        0.1887
      5 N         144.3182  139.4790  164.6057 N.2     1  UNL1       -0.0676
      6 C         143.3607  138.7336  165.4874 C.cat   1  UNL1        0.4252
      7 N         142.3435  138.0680  164.6085 N.2     1  UNL1       -0.0714
      8 C         142.6723  138.4021  163.1837 C.2     1  UNL1        0.1741
      9 C         142.0182  138.0249  161.8876 C.3     1  UNL1        0.0892
     10 C         139.9677  137.0110  155.4056 C.3     1  UNL1        0.0896
     11 N         140.6219  137.3881  156.7016 N.3     1  UNL1       -0.2715
     12 C         142.0530  137.0170  156.9553 C.3     1  UNL1        0.0725
     13 C         142.7072  137.3942  158.2514 C.3     1  UNL1        0.0214
     14 C         141.9303  138.1425  159.2937 C.3     1  UNL1        0.0215
     15 C         140.4993  138.5137  159.0400 C.3     1  UNL1        0.0214
     16 C         139.8451  138.1366  157.7440 C.3     1  UNL1        0.0725
     17 N         143.4114  138.6656  166.9851 N.pl3   1  UNL1       -0.1848
     18 H         143.9936  138.0072  167.4285 H       1  UNL1        0.2530
     19 C         142.5749  139.6009  167.8070 C.ar    1  UNL1        0.1936
     20 C         141.6411  140.5616  167.1322 C.ar    1  UNL1        0.0516
     21 C         140.8046  141.4969  167.9542 C.ar    1  UNL1        0.0098
     22 C         140.9019  141.4715  169.4508 C.ar    1  UNL1        0.0907
     23 C         141.8357  140.5108  170.1255 C.ar    1  UNL1        0.1055
     24 N         142.6722  139.5756  169.3036 N.ar    1  UNL1       -0.2149
     25 C         140.0655  142.4068  170.2728 C.3     1  UNL1        0.4200
     26 F         139.2290  143.3420  171.0947 F       1  UNL1       -0.1658
     27 F         138.9409  141.4142  170.2577 F       1  UNL1       -0.1658
     28 F         141.1901  143.3993  170.2878 F       1  UNL1       -0.1658
@<TRIPOS>BOND
     1    10    11    1
     2    11    12    1
     3    12    13    1
     4    13    14    1
     5    14     1    1
     6     1     2    2
     7     2     3    1
     8     3     4    2
     9     4     5    1
    10     5     6    2
    11     6    17    1
    12    17    19    1
    13    19    20   ar
    14    20    21   ar
    15    21    22   ar
    16    22    25    1
    17    25    26    1
    18    25    27    1
    19    25    28    1
    20    22    23   ar
    21    23    24   ar
    22     6     7    1
    23     7     8    2
    24     8     9    1
    25    14    15    1
    26    15    16    1
    27    16    11    1
    28     9     1    1
    29     8     4    1
    30    24    19   ar
    31    17    18    1
@<TRIPOS>MOLECULE
*****
 28 31 0 0 0
SMALL
GASTEIGER

@<TRIPOS>ATOM
      1 C         139.4352  139.8197  165.5391 C.2     1  UNL1       -0.0369
      2 C         139.0809  138.3622  165.5252 C.2     1  UNL1       -0.0050
      3 C         138.8479  137.6595  164.2207 C.2     1  UNL1        0.0392
      4 C         138.9693  138.4142  162.9301 C.2     1  UNL1        0.1887
      5 N         138.7985  137.9923  161.5007 N.2     1  UNL1       -0.0676
      6 C         139.0473  139.1890  160.6313 C.cat   1  UNL1        0.4252
      7 N         139.3719  140.3505  161.5233 N.2     1  UNL1       -0.0714
      8 C         139.3236  139.8717  162.9440 C.2     1  UNL1        0.1741
      9 C         139.5566  140.5744  164.2485 C.3     1  UNL1        0.0892
     10 C         140.3670  142.6308  170.7574 C.3     1  UNL1        0.0896
     11 N         140.1341  141.9281  169.4528 N.3     1  UNL1       -0.2715
     12 C         140.5500  142.5776  168.1663 C.3     1  UNL1        0.0725
     13 C         140.3170  141.8748  166.8617 C.3     1  UNL1        0.0214
     14 C         139.6682  140.5225  166.8437 C.3     1  UNL1        0.0215
     15 C         139.2523  139.8730  168.1303 C.3     1  UNL1        0.0214
     16 C         139.4852  140.5757  169.4348 C.3     1  UNL1        0.0725
     17 N         138.9829  139.2191  159.1330 N.pl3   1  UNL1       -0.1848
     18 H         138.2851  139.7461  158.6807 H       1  UNL1        0.2530
     19 C         139.9818  138.4461  158.3237 C.ar    1  UNL1        0.1936
     20 C         141.4247  138.4267  158.7331 C.ar    1  UNL1        0.0516
     21 C         142.4236  137.6537  157.9239 C.ar    1  UNL1        0.0098
     22 C         141.9794  136.9002  156.7052 C.ar    1  UNL1        0.0907
     23 C         140.5365  136.9197  156.2959 C.ar    1  UNL1        0.1055
     24 N         139.5377  137.6926  157.1051 N.ar    1  UNL1       -0.2149
     25 C         142.9783  136.1273  155.8960 C.3     1  UNL1        0.4200
     26 F         143.9771  135.3543  155.0868 F       1  UNL1       -0.1658
     27 F         142.1254  134.8992  156.0162 F       1  UNL1       -0.1658
     28 F         143.8312  137.3553  155.7758 F       1  UNL1       -0.1658
@<TRIPOS>BOND
     1    10    11    1
     2    11    12    1
     3    12    13    1
     4    13    14    1
     5    14     1    1
     6     1     2    2
     7     2     3    1
     8     3     4    2
     9     4     5    1
    10     5     6    2
    11     6    17    1
    12    17    19    1
    13    19    20   ar
    14    20    21   ar
    15    21    22   ar
    16    22    25    1
    17    25    26    1
    18    25    27    1
    19    25    28    1
    20    22    23   ar
    21    23    24   ar
    22     6     7    1
    23     7     8    2
    24     8     9    1
    25    14    15    1
    26    15    16    1
    27    16    11    1
    28     9     1    1
    29     8     4    1
    30    24    19   ar
    31    17    18    1
@<TRIPOS>MOLECULE
*****
 28 31 0 0 0
SMALL
GASTEIGER

@<TRIPOS>ATOM
      1 C         140.2080  143.1825  165.6380 C.2     1  UNL1       -0.0369
      2 C         139.0909  144.1787  165.5395 C.2     1  UNL1       -0.0050
      3 C         138.9401  145.0167  164.3046 C.2     1  UNL1        0.0392
      4 C         139.9064  144.8585  163.1683 C.2     1  UNL1        0.1887
      5 N         140.0089  145.5397  161.8357 N.2     1  UNL1       -0.0676
      6 C         141.1894  144.9645  161.1108 C.cat   1  UNL1        0.4252
      7 N         141.8164  143.9278  161.9952 N.2     1  UNL1       -0.0714
      8 C         141.0235  143.8624  163.2668 C.2     1  UNL1        0.1741
      9 C         141.1743  143.0244  164.5017 C.3     1  UNL1        0.0892
     10 C         140.8114  139.8304  170.5777 C.3     1  UNL1        0.0896
     11 N         140.6606  140.6684  169.3428 N.3     1  UNL1       -0.2715
     12 C         140.5667  140.0116  167.9975 C.3     1  UNL1        0.0725
     13 C         140.4159  140.8497  166.7626 C.3     1  UNL1        0.0214
     14 C         140.3589  142.3445  166.8730 C.3     1  UNL1        0.0215
     15 C         140.4527  143.0013  168.2182 C.3     1  UNL1        0.0214
     16 C         140.6036  142.1633  169.4531 C.3     1  UNL1        0.0725
     17 N         141.6602  145.3570  159.7417 N.pl3   1  UNL1       -0.1848
     18 H         142.5521  145.7567  159.6237 H       1  UNL1        0.2530
     19 C         140.7720  145.1405  158.5524 C.ar    1  UNL1        0.1936
     20 C         140.1233  143.8057  158.3340 C.ar    1  UNL1        0.0516
     21 C         139.2352  143.5891  157.1447 C.ar    1  UNL1        0.0098
     22 C         138.9957  144.7074  156.1740 C.ar    1  UNL1        0.0907
     23 C         139.6444  146.0420  156.3925 C.ar    1  UNL1        0.1055
     24 N         140.5326  146.2586  157.5817 N.ar    1  UNL1       -0.2149
     25 C         138.1076  144.4908  154.9847 C.3     1  UNL1        0.4200
     26 F         137.2194  144.2743  153.7955 F       1  UNL1       -0.1658
     27 F         137.7060  145.9356  155.0215 F       1  UNL1       -0.1658
     28 F         138.5091  143.0460  154.9479 F       1  UNL1       -0.1658
@<TRIPOS>BOND
     1    10    11    1
     2    11    12    1
     3    12    13    1
     4    13    14    1
     5    14     1    1
     6     1     2    2
     7     2     3    1
     8     3     4    2
     9     4     5    1
    10     5     6    2
    11     6    17    1
    12    17    19    1
    13    19    20   ar
    14    20    21   ar
    15    21    22   ar
    16    22    25    1
    17    25    26    1
    18    25    27    1
    19    25    28    1
    20    22    23   ar
    21    23    24   ar
    22     6     7    1
    23     7     8    2
    24     8     9    1
    25    14    15    1
    26    15    16    1
    27    16    11    1
    28     9     1    1
    29     8     4    1
    30    24    19   ar
    31    17    18    1
@<TRIPOS>MOLECULE
*****
 28 31 0 0 0
SMALL
GASTEIGER

@<TRIPOS>ATOM
      1 C         138.9886  146.8398  155.6048 C.2     1  UNL1       -0.0369
      2 C         139.9413  146.2632  156.6097 C.2     1  UNL1       -0.0050
      3 C         139.8473  144.8145  156.9869 C.2     1  UNL1        0.0392
      4 C         138.8006  143.9424  156.3593 C.2     1  UNL1        0.1887
      5 N         138.4686  142.4898  156.5324 N.2     1  UNL1       -0.0676
      6 C         137.3108  142.1688  155.6345 C.cat   1  UNL1        0.4252
      7 N         136.9271  143.4229  154.9065 N.2     1  UNL1       -0.0714
      8 C         137.8479  144.5191  155.3544 C.2     1  UNL1        0.1741
      9 C         137.9419  145.9678  154.9772 C.3     1  UNL1        0.0892
     10 C         139.3645  152.6348  154.0958 C.3     1  UNL1        0.0896
     11 N         139.2705  151.1861  154.4730 N.3     1  UNL1       -0.2715
     12 C         139.8908  150.1405  153.5943 C.3     1  UNL1        0.0725
     13 C         139.7968  148.6917  153.9716 C.3     1  UNL1        0.0214
     14 C         139.0826  148.2886  155.2275 C.3     1  UNL1        0.0215
     15 C         138.4623  149.3342  156.1062 C.3     1  UNL1        0.0214
     16 C         138.5563  150.7829  155.7289 C.3     1  UNL1        0.0725
     17 N         136.6521  140.8288  155.4899 N.pl3   1  UNL1       -0.1848
     18 H         137.1761  140.0531  155.1852 H       1  UNL1        0.2530
     19 C         135.1951  140.6709  155.8096 C.ar    1  UNL1        0.1936
     20 C         134.1609  141.3088  154.9300 C.ar    1  UNL1        0.0516
     21 C         132.7039  141.1509  155.2497 C.ar    1  UNL1        0.0098
     22 C         132.2811  140.3552  156.4489 C.ar    1  UNL1        0.0907
     23 C         133.3153  139.7174  157.3284 C.ar    1  UNL1        0.1055
     24 N         134.7723  139.8752  157.0087 N.ar    1  UNL1       -0.2149
     25 C         130.8241  140.1973  156.7686 C.3     1  UNL1        0.4200
     26 F         129.3671  140.0394  157.0882 F       1  UNL1       -0.1658
     27 F         130.4757  141.1133  155.6330 F       1  UNL1       -0.1658
     28 F         131.1725  139.2813  157.9042 F       1  UNL1       -0.1658
@<TRIPOS>BOND
     1    10    11    1
     2    11    12    1
     3    12    13    1
     4    13    14    1
     5    14     1    1
     6     1     2    2
     7     2     3    1
     8     3     4    2
     9     4     5    1
    10     5     6    2
    11     6    17    1
    12    17    19    1
    13    19    20   ar
    14    20    21   ar
    15    21    22   ar
    16    22    25    1
    17    25    26    1
    18    25    27    1
    19    25    28    1
    20    22    23   ar
    21    23    24   ar
    22     6     7    1
    23     7     8    2
    24     8     9    1
    25    14    15    1
    26    15    16    1
    27    16    11    1
    28     9     1    1
    29     8     4    1
    30    24    19   ar
    31    17    18    1
@<TRIPOS>MOLECULE
*****
 28 31 0 0 0
SMALL
GASTEIGER

@<TRIPOS>ATOM
      1 C         140.1686  139.1079  165.0098 C.2     1  UNL1       -0.0369
      2 C         139.1784  138.0216  164.7106 C.2     1  UNL1       -0.0050
      3 C         138.8971  137.6340  163.2891 C.2     1  UNL1        0.0392
      4 C         139.6059  138.3328  162.1669 C.2     1  UNL1        0.1887
      5 N         139.5346  138.1679  160.6776 N.2     1  UNL1       -0.0676
      6 C         140.4807  139.1523  160.0565 C.cat   1  UNL1        0.4252
      7 N         141.1367  139.9255  161.1619 N.2     1  UNL1       -0.0714
      8 C         140.5961  139.4190  162.4662 C.2     1  UNL1        0.1741
      9 C         140.8774  139.8066  163.8876 C.3     1  UNL1        0.0892
     10 C         141.2939  140.6583  170.6958 C.3     1  UNL1        0.0896
     11 N         141.0126  140.2707  169.2744 N.3     1  UNL1       -0.2715
     12 C         142.1422  139.8947  168.3619 C.3     1  UNL1        0.0725
     13 C         141.8608  139.5071  166.9404 C.3     1  UNL1        0.0214
     14 C         140.4499  139.4955  166.4314 C.3     1  UNL1        0.0215
     15 C         139.3203  139.8715  167.3438 C.3     1  UNL1        0.0214
     16 C         139.6016  140.2591  168.7653 C.3     1  UNL1        0.0725
     17 N         140.7276  139.3319  158.5879 N.pl3   1  UNL1       -0.1848
     18 H         140.5941  140.2136  158.1705 H       1  UNL1        0.2530
     19 C         141.1777  138.1684  157.7552 C.ar    1  UNL1        0.1936
     20 C         140.2871  137.6300  156.6749 C.ar    1  UNL1        0.0516
     21 C         140.7372  136.4664  155.8422 C.ar    1  UNL1        0.0098
     22 C         142.0781  135.8412  156.0898 C.ar    1  UNL1        0.0907
     23 C         142.9687  136.3795  157.1700 C.ar    1  UNL1        0.1055
     24 N         142.5185  137.5431  158.0027 N.ar    1  UNL1       -0.2149
     25 C         142.5283  134.6776  155.2571 C.3     1  UNL1        0.4200
     26 F         142.9785  133.5140  154.4244 F       1  UNL1       -0.1658
     27 F         143.9492  135.1437  155.3740 F       1  UNL1       -0.1658
     28 F         141.1073  134.2114  155.1402 F       1  UNL1       -0.1658
@<TRIPOS>BOND
     1    10    11    1
     2    11    12    1
     3    12    13    1
     4    13    14    1
     5    14     1    1
     6     1     2    2
     7     2     3    1
     8     3     4    2
     9     4     5    1
    10     5     6    2
    11     6    17    1
    12    17    19    1
    13    19    20   ar
    14    20    21   ar
    15    21    22   ar
    16    22    25    1
    17    25    26    1
    18    25    27    1
    19    25    28    1
    20    22    23   ar
    21    23    24   ar
    22     6     7    1
    23     7     8    2
    24     8     9    1
    25    14    15    1
    26    15    16    1
    27    16    11    1
    28     9     1    1
    29     8     4    1
    30    24    19   ar
    31    17    18    1
@<TRIPOS>MOLECULE
*****
 28 31 0 0 0
SMALL
GASTEIGER

@<TRIPOS>ATOM
      1 C         140.6343  135.7653  154.8983 C.2     1  UNL1       -0.0369
      2 C         140.3888  135.5542  153.4337 C.2     1  UNL1       -0.0050
      3 C         139.3874  136.4054  152.7109 C.2     1  UNL1        0.0392
      4 C         138.6315  137.4677  153.4526 C.2     1  UNL1        0.1887
      5 N         137.5907  138.4532  153.0103 N.2     1  UNL1       -0.0676
      6 C         137.1930  139.2733  154.2015 C.cat   1  UNL1        0.4252
      7 N         137.9880  138.7947  155.3801 N.2     1  UNL1       -0.0714
      8 C         138.8771  137.6788  154.9172 C.2     1  UNL1        0.1741
      9 C         139.8785  136.8276  155.6400 C.3     1  UNL1        0.0892
     10 C         144.6400  132.3604  157.7900 C.3     1  UNL1        0.0896
     11 N         143.6386  133.2116  157.0671 N.3     1  UNL1       -0.2715
     12 C         143.6373  134.6987  157.2637 C.3     1  UNL1        0.0725
     13 C         142.6359  135.5499  156.5408 C.3     1  UNL1        0.0214
     14 C         141.6358  134.9141  155.6213 C.3     1  UNL1        0.0215
     15 C         141.6371  133.4270  155.4246 C.3     1  UNL1        0.0214
     16 C         142.6385  132.5758  156.1475 C.3     1  UNL1        0.0725
     17 N         136.1784  140.3781  154.2124 N.pl3   1  UNL1       -0.1848
     18 H         136.3476  141.2068  153.7086 H       1  UNL1        0.2530
     19 C         134.9061  140.2203  154.9911 C.ar    1  UNL1        0.1936
     20 C         133.8610  141.2954  154.9462 C.ar    1  UNL1        0.0516
     21 C         132.5887  141.1376  155.7248 C.ar    1  UNL1        0.0098
     22 C         132.3614  139.9046  156.5483 C.ar    1  UNL1        0.0907
     23 C         133.4065  138.8295  156.5932 C.ar    1  UNL1        0.1055
     24 N         134.6788  138.9874  155.8146 N.ar    1  UNL1       -0.2149
     25 C         131.0891  139.7467  157.3270 C.3     1  UNL1        0.4200
     26 F         129.8168  139.5889  158.1056 F       1  UNL1       -0.1658
     27 F         131.7686  138.7687  158.2390 F       1  UNL1       -0.1658
     28 F         130.4096  140.7247  156.4149 F       1  UNL1       -0.1658
@<TRIPOS>BOND
     1    10    11    1
     2    11    12    1
     3    12    13    1
     4    13    14    1
     5    14     1    1
     6     1     2    2
     7     2     3    1
     8     3     4    2
     9     4     5    1
    10     5     6    2
    11     6    17    1
    12    17    19    1
    13    19    20   ar
    14    20    21   ar
    15    21    22   ar
    16    22    25    1
    17    25    26    1
    18    25    27    1
    19    25    28    1
    20    22    23   ar
    21    23    24   ar
    22     6     7    1
    23     7     8    2
    24     8     9    1
    25    14    15    1
    26    15    16    1
    27    16    11    1
    28     9     1    1
    29     8     4    1
    30    24    19   ar
    31    17    18    1
@<TRIPOS>MOLECULE
*****
 28 31 0 0 0
SMALL
GASTEIGER

@<TRIPOS>ATOM
      1 C         142.8051  133.4559  154.9885 C.2     1  UNL1       -0.0369
      2 C         141.7398  134.1183  154.1661 C.2     1  UNL1       -0.0050
      3 C         141.1468  135.4207  154.6156 C.2     1  UNL1        0.0392
      4 C         141.6190  136.0606  155.8874 C.2     1  UNL1        0.1887
      5 N         141.2234  137.3319  156.5784 N.2     1  UNL1       -0.0676
      6 C         142.0442  137.4551  157.8278 C.cat   1  UNL1        0.4252
      7 N         142.9471  136.2600  157.9090 N.2     1  UNL1       -0.0714
      8 C         142.6843  135.3982  156.7097 C.2     1  UNL1        0.1741
      9 C         143.2773  134.0958  156.2603 C.3     1  UNL1        0.0892
     10 C         145.1775  128.2462  153.1908 C.3     1  UNL1        0.0896
     11 N         144.5844  129.5486  153.6402 N.3     1  UNL1       -0.2715
     12 C         143.7614  130.3658  152.6889 C.3     1  UNL1        0.0725
     13 C         143.1683  131.6683  153.1384 C.3     1  UNL1        0.0214
     14 C         143.3982  132.1534  154.5390 C.3     1  UNL1        0.0215
     15 C         144.2212  131.3362  155.4902 C.3     1  UNL1        0.0214
     16 C         144.8142  130.0338  155.0409 C.3     1  UNL1        0.0725
     17 N         141.9745  138.5765  158.8216 N.pl3   1  UNL1       -0.1848
     18 H         142.3271  139.4651  158.5867 H       1  UNL1        0.2530
     19 C         141.3674  138.3439  160.1734 C.ar    1  UNL1        0.1936
     20 C         142.2474  138.0290  161.3467 C.ar    1  UNL1        0.0516
     21 C         141.6404  137.7964  162.6985 C.ar    1  UNL1        0.0098
     22 C         140.1532  137.8788  162.8771 C.ar    1  UNL1        0.0907
     23 C         139.2733  138.1937  161.7038 C.ar    1  UNL1        0.1055
     24 N         139.8804  138.4263  160.3520 N.ar    1  UNL1       -0.2149
     25 C         139.5462  137.6462  164.2289 C.3     1  UNL1        0.4200
     26 F         138.9391  137.4136  165.5807 F       1  UNL1       -0.1658
     27 F         138.3159  138.3923  163.8047 F       1  UNL1       -0.1658
     28 F         140.7764  136.9001  164.6530 F       1  UNL1       -0.1658
@<TRIPOS>BOND
     1    10    11    1
     2    11    12    1
     3    12    13    1
     4    13    14    1
     5    14     1    1
     6     1     2    2
     7     2     3    1
     8     3     4    2
     9     4     5    1
    10     5     6    2
    11     6    17    1
    12    17    19    1
    13    19    20   ar
    14    20    21   ar
    15    21    22   ar
    16    22    25    1
    17    25    26    1
    18    25    27    1
    19    25    28    1
    20    22    23   ar
    21    23    24   ar
    22     6     7    1
    23     7     8    2
    24     8     9    1
    25    14    15    1
    26    15    16    1
    27    16    11    1
    28     9     1    1
    29     8     4    1
    30    24    19   ar
    31    17    18    1
@<TRIPOS>MOLECULE
*****
 28 31 0 0 0
SMALL
GASTEIGER

@<TRIPOS>ATOM
      1 C         142.7431  133.9201  155.4970 C.2     1  UNL1       -0.0369
      2 C         141.5570  134.5041  154.7885 C.2     1  UNL1       -0.0050
      3 C         140.9816  135.8127  155.2427 C.2     1  UNL1        0.0392
      4 C         141.5924  136.5373  156.4055 C.2     1  UNL1        0.1887
      5 N         141.2452  137.8343  157.0744 N.2     1  UNL1       -0.0676
      6 C         142.2167  138.0519  158.1963 C.cat   1  UNL1        0.4252
      7 N         143.1644  136.8893  158.2207 N.2     1  UNL1       -0.0714
      8 C         142.7785  135.9533  157.1140 C.2     1  UNL1        0.1741
      9 C         143.3538  134.6447  156.6598 C.3     1  UNL1        0.0892
     10 C         145.0449  128.6854  153.6804 C.3     1  UNL1        0.0896
     11 N         144.4695  129.9940  154.1345 N.3     1  UNL1       -0.2715
     12 C         143.5298  130.7500  153.2426 C.3     1  UNL1        0.0725
     13 C         142.9544  132.0587  153.6968 C.3     1  UNL1        0.0214
     14 C         143.3186  132.6114  155.0428 C.3     1  UNL1        0.0215
     15 C         144.2582  131.8553  155.9348 C.3     1  UNL1        0.0214
     16 C         144.8336  130.5467  155.4806 C.3     1  UNL1        0.0725
     17 N         142.2372  139.2258  159.1299 N.pl3   1  UNL1       -0.1848
     18 H         142.1057  140.1362  158.7789 H       1  UNL1        0.2530
     19 C         142.4579  139.0126  160.5981 C.ar    1  UNL1        0.1936
     20 C         143.7349  139.4698  161.2387 C.ar    1  UNL1        0.0516
     21 C         143.9557  139.2566  162.7070 C.ar    1  UNL1        0.0098
     22 C         142.8994  138.5863  163.5347 C.ar    1  UNL1        0.0907
     23 C         141.6224  138.1291  162.8941 C.ar    1  UNL1        0.1055
     24 N         141.4017  138.3423  161.4258 N.ar    1  UNL1       -0.2149
     25 C         143.1201  138.3731  165.0029 C.3     1  UNL1        0.4200
     26 F         143.3409  138.1599  166.4712 F       1  UNL1       -0.1658
     27 F         141.9229  137.4707  165.0519 F       1  UNL1       -0.1658
     28 F         144.3173  139.2755  164.9540 F       1  UNL1       -0.1658
@<TRIPOS>BOND
     1    10    11    1
     2    11    12    1
     3    12    13    1
     4    13    14    1
     5    14     1    1
     6     1     2    2
     7     2     3    1
     8     3     4    2
     9     4     5    1
    10     5     6    2
    11     6    17    1
    12    17    19    1
    13    19    20   ar
    14    20    21   ar
    15    21    22   ar
    16    22    25    1
    17    25    26    1
    18    25    27    1
    19    25    28    1
    20    22    23   ar
    21    23    24   ar
    22     6     7    1
    23     7     8    2
    24     8     9    1
    25    14    15    1
    26    15    16    1
    27    16    11    1
    28     9     1    1
    29     8     4    1
    30    24    19   ar
    31    17    18    1
@<TRIPOS>MOLECULE
*****
 28 31 0 0 0
SMALL
GASTEIGER

@<TRIPOS>ATOM
      1 C         142.4966  139.8394  165.2649 C.2     1  UNL1       -0.0369
      2 C         143.9532  139.5139  165.1161 C.2     1  UNL1       -0.0050
      3 C         144.5831  139.4989  163.7548 C.2     1  UNL1        0.0392
      4 C         143.7563  139.8096  162.5424 C.2     1  UNL1        0.1887
      5 N         144.0984  139.8714  161.0832 N.2     1  UNL1       -0.0676
      6 C         142.8532  140.2351  160.3302 C.cat   1  UNL1        0.4252
      7 N         141.7415  140.3982  161.3240 N.2     1  UNL1       -0.0714
      8 C         142.2997  140.1352  162.6912 C.2     1  UNL1        0.1741
      9 C         141.6698  140.1501  164.0524 C.3     1  UNL1        0.0892
     10 C         139.9768  139.8992  170.7098 C.3     1  UNL1        0.0896
     11 N         140.6067  139.8842  169.3486 N.3     1  UNL1       -0.2715
     12 C         142.0535  139.5189  169.1957 C.3     1  UNL1        0.0725
     13 C         142.6835  139.5040  167.8344 C.3     1  UNL1        0.0214
     14 C         141.8666  139.8544  166.6262 C.3     1  UNL1        0.0215
     15 C         140.4199  140.2197  166.7791 C.3     1  UNL1        0.0214
     16 C         139.7899  140.2346  168.1402 C.3     1  UNL1        0.0725
     17 N         142.7395  140.4059  158.8443 N.pl3   1  UNL1       -0.1848
     18 H         141.8791  140.2430  158.3944 H       1  UNL1        0.2530
     19 C         143.9369  140.8248  158.0437 C.ar    1  UNL1        0.1936
     20 C         144.6682  142.0871  158.3928 C.ar    1  UNL1        0.0516
     21 C         145.8655  142.5061  157.5923 C.ar    1  UNL1        0.0098
     22 C         146.3315  141.6627  156.4426 C.ar    1  UNL1        0.0907
     23 C         145.6002  140.4005  156.0936 C.ar    1  UNL1        0.1055
     24 N         144.4029  139.9815  156.8941 N.ar    1  UNL1       -0.2149
     25 C         147.5289  142.0816  155.6421 C.3     1  UNL1        0.4200
     26 F         148.7262  142.5006  154.8415 F       1  UNL1       -0.1658
     27 F         146.8466  141.6295  154.3850 F       1  UNL1       -0.1658
     28 F         148.2111  142.5338  156.8991 F       1  UNL1       -0.1658
@<TRIPOS>BOND
     1    10    11    1
     2    11    12    1
     3    12    13    1
     4    13    14    1
     5    14     1    1
     6     1     2    2
     7     2     3    1
     8     3     4    2
     9     4     5    1
    10     5     6    2
    11     6    17    1
    12    17    19    1
    13    19    20   ar
    14    20    21   ar
    15    21    22   ar
    16    22    25    1
    17    25    26    1
    18    25    27    1
    19    25    28    1
    20    22    23   ar
    21    23    24   ar
    22     6     7    1
    23     7     8    2
    24     8     9    1
    25    14    15    1
    26    15    16    1
    27    16    11    1
    28     9     1    1
    29     8     4    1
    30    24    19   ar
    31    17    18    1
