@<TRIPOS>MOLECULE
*****
 24 27 0 0 0
SMALL
GASTEIGER

@<TRIPOS>ATOM
      1 O         137.4522  138.2332  166.7070 O.2     1  UNL1       -0.2666
      2 C         138.7057  138.9950  166.3934 C.2     1  UNL1        0.2837
      3 C         139.4222  139.7403  167.4803 C.ar    1  UNL1        0.1985
      4 N         139.1333  139.9051  168.9430 N.ar    1  UNL1       -0.2226
      5 C         140.2083  140.7687  169.5334 C.ar    1  UNL1        0.0993
      6 C         140.4423  141.2667  170.9288 C.ar    1  UNL1        0.0207
      7 C         141.6295  142.1338  171.2264 C.ar    1  UNL1        0.0021
      8 C         142.5827  142.5029  170.1286 C.ar    1  UNL1        0.0082
      9 C         142.3488  142.0048  168.7332 C.ar    1  UNL1        0.0518
     10 BR        143.3020  142.3739  167.6354 Br      1  UNL1       -0.0474
     11 C         141.1615  141.1377  168.4356 C.ar    1  UNL1        0.0853
     12 N         140.6757  140.5022  167.1668 N.ar    1  UNL1       -0.3056
     13 C         141.2127  140.5187  165.7663 C.3     1  UNL1        0.1291
     14 C         140.4963  139.7734  164.6794 C.3     1  UNL1        0.1186
     15 N         139.2428  139.0116  164.9930 N.am    1  UNL1       -0.2674
     16 C         138.5264  138.2663  163.9061 C.3     1  UNL1        0.1228
     17 C         138.5730  138.7709  162.4943 C.ar    1  UNL1        0.0252
     18 C         139.3389  138.0119  161.4515 C.ar    1  UNL1        0.0005
     19 C         139.3855  138.5165  160.0396 C.ar    1  UNL1        0.0113
     20 C         138.6663  139.7801  159.6706 C.ar    1  UNL1        0.0599
     21 CL        138.7129  140.2846  158.2588 Cl      1  UNL1       -0.0822
     22 C         137.9003  140.5390  160.7135 C.ar    1  UNL1        0.0407
     23 C         137.8537  140.0344  162.1253 C.ar    1  UNL1        0.1386
     24 F         137.0879  140.7933  163.1681 F       1  UNL1       -0.2044
@<TRIPOS>BOND
     1     1     2    2
     2     2     3    1
     3     3     4   ar
     4     4     5   ar
     5     5     6   ar
     6     6     7   ar
     7     7     8   ar
     8     8     9   ar
     9     9    10    1
    10     9    11   ar
    11    11    12   ar
    12    12    13    1
    13    13    14    1
    14    14    15    1
    15    15    16    1
    16    16    17    1
    17    17    18   ar
    18    18    19   ar
    19    19    20   ar
    20    20    21    1
    21    20    22   ar
    22    22    23   ar
    23    23    24    1
    24    15     2   am
    25    23    17   ar
    26    12     3   ar
    27    11     5   ar
@<TRIPOS>MOLECULE
*****
 24 27 0 0 0
SMALL
GASTEIGER

@<TRIPOS>ATOM
      1 O         138.9075  144.9143  163.9155 O.2     1  UNL1       -0.2666
      2 C         140.0464  144.1992  163.2510 C.2     1  UNL1        0.2837
      3 C         140.3725  144.4806  161.8141 C.ar    1  UNL1        0.1985
      4 N         139.7534  145.4032  160.8064 N.ar    1  UNL1       -0.2226
      5 C         140.5096  145.2584  159.5191 C.ar    1  UNL1        0.0993
      6 C         140.3492  145.9173  158.1812 C.ar    1  UNL1        0.0207
      7 C         141.2753  145.5641  157.0554 C.ar    1  UNL1        0.0021
      8 C         142.3618  144.5519  157.2675 C.ar    1  UNL1        0.0082
      9 C         142.5222  143.8929  158.6054 C.ar    1  UNL1        0.0518
     10 BR        143.6087  142.8807  158.8174 Br      1  UNL1       -0.0474
     11 C         141.5961  144.2462  159.7312 C.ar    1  UNL1        0.0853
     12 N         141.5113  143.7655  161.1496 N.ar    1  UNL1       -0.3056
     13 C         142.3241  142.7690  161.9219 C.3     1  UNL1        0.1291
     14 C         141.9979  142.4876  163.3587 C.3     1  UNL1        0.1186
     15 N         140.8591  143.2027  164.0233 N.am    1  UNL1       -0.2674
     16 C         140.5330  142.9214  165.4601 C.3     1  UNL1        0.1228
     17 C         139.7941  141.6695  165.8302 C.ar    1  UNL1        0.0252
     18 C         138.8569  141.0334  164.8470 C.ar    1  UNL1        0.0005
     19 C         138.1180  139.7815  165.2171 C.ar    1  UNL1        0.0113
     20 C         138.3164  139.1658  166.5705 C.ar    1  UNL1        0.0599
     21 CL        137.5776  137.9140  166.9406 Cl      1  UNL1       -0.0822
     22 C         139.2537  139.8021  167.5538 C.ar    1  UNL1        0.0407
     23 C         139.9926  141.0539  167.1836 C.ar    1  UNL1        0.1386
     24 F         140.9298  141.6901  168.1668 F       1  UNL1       -0.2044
@<TRIPOS>BOND
     1     1     2    2
     2     2     3    1
     3     3     4   ar
     4     4     5   ar
     5     5     6   ar
     6     6     7   ar
     7     7     8   ar
     8     8     9   ar
     9     9    10    1
    10     9    11   ar
    11    11    12   ar
    12    12    13    1
    13    13    14    1
    14    14    15    1
    15    15    16    1
    16    16    17    1
    17    17    18   ar
    18    18    19   ar
    19    19    20   ar
    20    20    21    1
    21    20    22   ar
    22    22    23   ar
    23    23    24    1
    24    15     2   am
    25    23    17   ar
    26    12     3   ar
    27    11     5   ar
@<TRIPOS>MOLECULE
*****
 24 27 0 0 0
SMALL
GASTEIGER

@<TRIPOS>ATOM
      1 O         141.7311  139.1228  163.7642 O.2     1  UNL1       -0.2666
      2 C         140.8229  139.2857  164.9468 C.2     1  UNL1        0.2837
      3 C         141.2788  140.0722  166.1399 C.ar    1  UNL1        0.1985
      4 N         142.5589  140.7962  166.4354 N.ar    1  UNL1       -0.2226
      5 C         142.4418  141.4065  167.8006 C.ar    1  UNL1        0.0993
      6 C         143.3920  142.2331  168.6153 C.ar    1  UNL1        0.0207
      7 C         142.9897  142.7131  169.9783 C.ar    1  UNL1        0.0021
      8 C         141.6372  142.3663  170.5266 C.ar    1  UNL1        0.0082
      9 C         140.6871  141.5397  169.7119 C.ar    1  UNL1        0.0518
     10 BR        139.3346  141.1929  170.2602 Br      1  UNL1       -0.0474
     11 C         141.0894  141.0598  168.3489 C.ar    1  UNL1        0.0853
     12 N         140.3706  140.2351  167.3225 N.ar    1  UNL1       -0.3056
     13 C         139.0064  139.6116  167.3120 C.3     1  UNL1        0.1291
     14 C         138.5505  138.8251  166.1189 C.3     1  UNL1        0.1186
     15 N         139.4587  138.6621  164.9363 N.am    1  UNL1       -0.2674
     16 C         139.0027  137.8756  163.7431 C.3     1  UNL1        0.1228
     17 C         138.8212  138.5581  162.4198 C.ar    1  UNL1        0.0252
     18 C         139.5017  138.0171  161.1974 C.ar    1  UNL1        0.0005
     19 C         139.3202  138.6995  159.8739 C.ar    1  UNL1        0.0113
     20 C         138.4582  139.9229  159.7729 C.ar    1  UNL1        0.0599
     21 CL        138.2766  140.6053  158.4496 Cl      1  UNL1       -0.0822
     22 C         137.7776  140.4639  160.9954 C.ar    1  UNL1        0.0407
     23 C         137.9592  139.7815  162.3188 C.ar    1  UNL1        0.1386
     24 F         137.2787  140.3224  163.5411 F       1  UNL1       -0.2044
@<TRIPOS>BOND
     1     1     2    2
     2     2     3    1
     3     3     4   ar
     4     4     5   ar
     5     5     6   ar
     6     6     7   ar
     7     7     8   ar
     8     8     9   ar
     9     9    10    1
    10     9    11   ar
    11    11    12   ar
    12    12    13    1
    13    13    14    1
    14    14    15    1
    15    15    16    1
    16    16    17    1
    17    17    18   ar
    18    18    19   ar
    19    19    20   ar
    20    20    21    1
    21    20    22   ar
    22    22    23   ar
    23    23    24    1
    24    15     2   am
    25    23    17   ar
    26    12     3   ar
    27    11     5   ar
@<TRIPOS>MOLECULE
*****
 24 27 0 0 0
SMALL
GASTEIGER

@<TRIPOS>ATOM
      1 O         144.8834  143.7467  165.6380 O.2     1  UNL1       -0.2666
      2 C         143.6463  142.9009  165.5728 C.2     1  UNL1        0.2837
      3 C         143.0143  142.3977  166.8368 C.ar    1  UNL1        0.1985
      4 N         143.3819  142.5708  168.2807 N.ar    1  UNL1       -0.2226
      5 C         142.3719  141.8321  169.1079 C.ar    1  UNL1        0.0993
      6 C         142.2273  141.6515  170.5899 C.ar    1  UNL1        0.0207
      7 C         141.0908  140.8412  171.1393 C.ar    1  UNL1        0.0021
      8 C         140.0991  140.2114  170.2066 C.ar    1  UNL1        0.0082
      9 C         140.2438  140.3920  168.7246 C.ar    1  UNL1        0.0518
     10 BR        139.2520  139.7623  167.7919 Br      1  UNL1       -0.0474
     11 C         141.3802  141.2024  168.1752 C.ar    1  UNL1        0.0853
     12 N         141.7772  141.5520  166.7716 N.ar    1  UNL1       -0.3056
     13 C         141.1721  141.2094  165.4426 C.3     1  UNL1        0.1291
     14 C         141.8040  141.7126  164.1786 C.3     1  UNL1        0.1186
     15 N         143.0411  142.5583  164.2438 N.am    1  UNL1       -0.2674
     16 C         143.6731  143.0615  162.9799 C.3     1  UNL1        0.1228
     17 C         142.8195  143.6594  161.9010 C.ar    1  UNL1        0.0252
     18 C         142.9478  143.1737  160.4876 C.ar    1  UNL1        0.0005
     19 C         142.0942  143.7716  159.4087 C.ar    1  UNL1        0.0113
     20 C         141.1124  144.8552  159.7432 C.ar    1  UNL1        0.0599
     21 CL        140.2588  145.4531  158.6644 Cl      1  UNL1       -0.0822
     22 C         140.9841  145.3409  161.1567 C.ar    1  UNL1        0.0407
     23 C         141.8377  144.7430  162.2355 C.ar    1  UNL1        0.1386
     24 F         141.7095  145.2286  163.6489 F       1  UNL1       -0.2044
@<TRIPOS>BOND
     1     1     2    2
     2     2     3    1
     3     3     4   ar
     4     4     5   ar
     5     5     6   ar
     6     6     7   ar
     7     7     8   ar
     8     8     9   ar
     9     9    10    1
    10     9    11   ar
    11    11    12   ar
    12    12    13    1
    13    13    14    1
    14    14    15    1
    15    15    16    1
    16    16    17    1
    17    17    18   ar
    18    18    19   ar
    19    19    20   ar
    20    20    21    1
    21    20    22   ar
    22    22    23   ar
    23    23    24    1
    24    15     2   am
    25    23    17   ar
    26    12     3   ar
    27    11     5   ar
@<TRIPOS>MOLECULE
*****
 24 27 0 0 0
SMALL
GASTEIGER

@<TRIPOS>ATOM
      1 O         138.3541  143.1569  160.8305 O.2     1  UNL1       -0.2666
      2 C         139.2012  143.3993  162.0444 C.2     1  UNL1        0.2837
      3 C         139.1005  142.4796  163.2251 C.ar    1  UNL1        0.1985
      4 N         138.2630  141.2616  163.4801 N.ar    1  UNL1       -0.2226
      5 C         138.5924  140.7512  164.8516 C.ar    1  UNL1        0.0993
      6 C         138.0789  139.5813  165.6373 C.ar    1  UNL1        0.0207
      7 C         138.6065  139.3139  167.0157 C.ar    1  UNL1        0.0021
      8 C         139.6477  140.2165  167.6084 C.ar    1  UNL1        0.0082
      9 C         140.1613  141.3864  166.8227 C.ar    1  UNL1        0.0518
     10 BR        141.2024  142.2890  167.4154 Br      1  UNL1       -0.0474
     11 C         139.6336  141.6538  165.4443 C.ar    1  UNL1        0.0853
     12 N         139.9476  142.7220  164.4391 N.ar    1  UNL1       -0.3056
     13 C         140.8955  143.8840  164.4723 C.3     1  UNL1        0.1291
     14 C         140.9962  144.8037  163.2916 C.3     1  UNL1        0.1186
     15 N         140.1491  144.5614  162.0776 N.am    1  UNL1       -0.2674
     16 C         140.2498  145.4810  160.8969 C.3     1  UNL1        0.1228
     17 C         140.9645  145.0334  159.6564 C.ar    1  UNL1        0.0252
     18 C         142.0167  143.9676  159.7403 C.ar    1  UNL1        0.0005
     19 C         142.7314  143.5200  158.4998 C.ar    1  UNL1        0.0113
     20 C         142.3939  144.1382  157.1754 C.ar    1  UNL1        0.0599
     21 CL        143.1086  143.6906  155.9349 Cl      1  UNL1       -0.0822
     22 C         141.3418  145.2040  157.0915 C.ar    1  UNL1        0.0407
     23 C         140.6271  145.6516  158.3320 C.ar    1  UNL1        0.1386
     24 F         139.5750  146.7174  158.2482 F       1  UNL1       -0.2044
@<TRIPOS>BOND
     1     1     2    2
     2     2     3    1
     3     3     4   ar
     4     4     5   ar
     5     5     6   ar
     6     6     7   ar
     7     7     8   ar
     8     8     9   ar
     9     9    10    1
    10     9    11   ar
    11    11    12   ar
    12    12    13    1
    13    13    14    1
    14    14    15    1
    15    15    16    1
    16    16    17    1
    17    17    18   ar
    18    18    19   ar
    19    19    20   ar
    20    20    21    1
    21    20    22   ar
    22    22    23   ar
    23    23    24    1
    24    15     2   am
    25    23    17   ar
    26    12     3   ar
    27    11     5   ar
@<TRIPOS>MOLECULE
*****
 24 27 0 0 0
SMALL
GASTEIGER

@<TRIPOS>ATOM
      1 O         139.0944  137.2818  165.0203 O.2     1  UNL1       -0.2666
      2 C         138.9005  138.6578  164.4555 C.2     1  UNL1        0.2837
      3 C         139.0220  138.8861  162.9779 C.ar    1  UNL1        0.1985
      4 N         139.3219  137.9560  161.8399 N.ar    1  UNL1       -0.2226
      5 C         139.3132  138.7572  160.5718 C.ar    1  UNL1        0.0993
      6 C         139.5439  138.3731  159.1403 C.ar    1  UNL1        0.0207
      7 C         139.4693  139.4142  158.0631 C.ar    1  UNL1        0.0021
      8 C         139.1641  140.8395  158.4174 C.ar    1  UNL1        0.0082
      9 C         138.9335  141.2236  159.8489 C.ar    1  UNL1        0.0518
     10 BR        138.6284  142.6488  160.2032 Br      1  UNL1       -0.0474
     11 C         139.0081  140.1825  160.9261 C.ar    1  UNL1        0.0853
     12 N         138.8281  140.2621  162.4131 N.ar    1  UNL1       -0.3056
     13 C         138.5127  141.4098  163.3259 C.3     1  UNL1        0.1291
     14 C         138.3912  141.1815  164.8035 C.3     1  UNL1        0.1186
     15 N         138.5851  139.8055  165.3683 N.am    1  UNL1       -0.2674
     16 C         138.4636  139.5773  166.8458 C.3     1  UNL1        0.1228
     17 C         139.6416  139.8212  167.7418 C.ar    1  UNL1        0.0252
     18 C         141.0286  139.8325  167.1706 C.ar    1  UNL1        0.0005
     19 C         142.2067  140.0764  168.0666 C.ar    1  UNL1        0.0113
     20 C         141.9977  140.3090  169.5337 C.ar    1  UNL1        0.0599
     21 CL        143.1757  140.5529  170.4296 Cl      1  UNL1       -0.0822
     22 C         140.6107  140.2976  170.1048 C.ar    1  UNL1        0.0407
     23 C         139.4326  140.0537  169.2088 C.ar    1  UNL1        0.1386
     24 F         138.0457  140.0424  169.7799 F       1  UNL1       -0.2044
@<TRIPOS>BOND
     1     1     2    2
     2     2     3    1
     3     3     4   ar
     4     4     5   ar
     5     5     6   ar
     6     6     7   ar
     7     7     8   ar
     8     8     9   ar
     9     9    10    1
    10     9    11   ar
    11    11    12   ar
    12    12    13    1
    13    13    14    1
    14    14    15    1
    15    15    16    1
    16    16    17    1
    17    17    18   ar
    18    18    19   ar
    19    19    20   ar
    20    20    21    1
    21    20    22   ar
    22    22    23   ar
    23    23    24    1
    24    15     2   am
    25    23    17   ar
    26    12     3   ar
    27    11     5   ar
@<TRIPOS>MOLECULE
*****
 24 27 0 0 0
SMALL
GASTEIGER

@<TRIPOS>ATOM
      1 O         138.0678  139.8756  165.4131 O.2     1  UNL1       -0.2666
      2 C         139.4734  139.5020  165.0457 C.2     1  UNL1        0.2837
      3 C         139.8344  139.2603  163.6100 C.ar    1  UNL1        0.1985
      4 N         139.0247  139.3155  162.3485 N.ar    1  UNL1       -0.2226
      5 C         139.9298  138.9760  161.2015 C.ar    1  UNL1        0.0993
      6 C         139.6843  138.8739  159.7253 C.ar    1  UNL1        0.0207
      7 C         140.8078  138.5068  158.8018 C.ar    1  UNL1        0.0021
      8 C         142.1768  138.2419  159.3544 C.ar    1  UNL1        0.0082
      9 C         142.4224  138.3440  160.8306 C.ar    1  UNL1        0.0518
     10 BR        143.7915  138.0790  161.3833 Br      1  UNL1       -0.0474
     11 C         141.2989  138.7110  161.7542 C.ar    1  UNL1        0.0853
     12 N         141.2399  138.8868  163.2427 N.ar    1  UNL1       -0.3056
     13 C         142.2844  138.7549  164.3111 C.3     1  UNL1        0.1291
     14 C         141.9234  138.9966  165.7468 C.3     1  UNL1        0.1186
     15 N         140.5179  139.3701  166.1142 N.am    1  UNL1       -0.2674
     16 C         140.1569  139.6118  167.5499 C.3     1  UNL1        0.1228
     17 C         140.9453  140.5923  168.3667 C.ar    1  UNL1        0.0252
     18 C         140.4988  142.0212  168.4597 C.ar    1  UNL1        0.0005
     19 C         141.2873  143.0017  169.2765 C.ar    1  UNL1        0.0113
     20 C         142.5222  142.5532  170.0002 C.ar    1  UNL1        0.0599
     21 CL        143.3106  143.5336  170.8170 Cl      1  UNL1       -0.0822
     22 C         142.9687  141.1241  169.9072 C.ar    1  UNL1        0.0407
     23 C         142.1802  140.1437  169.0904 C.ar    1  UNL1        0.1386
     24 F         142.6267  138.7148  168.9974 F       1  UNL1       -0.2044
@<TRIPOS>BOND
     1     1     2    2
     2     2     3    1
     3     3     4   ar
     4     4     5   ar
     5     5     6   ar
     6     6     7   ar
     7     7     8   ar
     8     8     9   ar
     9     9    10    1
    10     9    11   ar
    11    11    12   ar
    12    12    13    1
    13    13    14    1
    14    14    15    1
    15    15    16    1
    16    16    17    1
    17    17    18   ar
    18    18    19   ar
    19    19    20   ar
    20    20    21    1
    21    20    22   ar
    22    22    23   ar
    23    23    24    1
    24    15     2   am
    25    23    17   ar
    26    12     3   ar
    27    11     5   ar
@<TRIPOS>MOLECULE
*****
 24 27 0 0 0
SMALL
GASTEIGER

@<TRIPOS>ATOM
      1 O         137.6647  144.1658  162.6092 O.2     1  UNL1       -0.2666
      2 C         138.6188  143.1864  161.9923 C.2     1  UNL1        0.2837
      3 C         139.4776  143.6031  160.8352 C.ar    1  UNL1        0.1985
      4 N         139.6020  144.9011  160.0938 N.ar    1  UNL1       -0.2226
      5 C         140.6330  144.7239  159.0187 C.ar    1  UNL1        0.0993
      6 C         141.1711  145.6624  157.9797 C.ar    1  UNL1        0.0207
      7 C         142.2219  145.1933  157.0176 C.ar    1  UNL1        0.0021
      8 C         142.7347  143.7858  157.0946 C.ar    1  UNL1        0.0082
      9 C         142.1966  142.8473  158.1337 C.ar    1  UNL1        0.0518
     10 BR        142.7094  141.4398  158.2107 Br      1  UNL1       -0.0474
     11 C         141.1458  143.3164  159.0957 C.ar    1  UNL1        0.0853
     12 N         140.4317  142.6237  160.2184 N.ar    1  UNL1       -0.3056
     13 C         140.5270  141.2276  160.7587 C.3     1  UNL1        0.1291
     14 C         139.6682  140.8110  161.9158 C.3     1  UNL1        0.1186
     15 N         138.7141  141.7904  162.5326 N.am    1  UNL1       -0.2674
     16 C         137.8553  141.3737  163.6897 C.3     1  UNL1        0.1228
     17 C         138.4883  141.0005  164.9974 C.ar    1  UNL1        0.0252
     18 C         138.1735  139.6788  165.6329 C.ar    1  UNL1        0.0005
     19 C         138.8065  139.3056  166.9406 C.ar    1  UNL1        0.0113
     20 C         139.7543  140.2542  167.6129 C.ar    1  UNL1        0.0599
     21 CL        140.3873  139.8810  168.9205 Cl      1  UNL1       -0.0822
     22 C         140.0691  141.5760  166.9773 C.ar    1  UNL1        0.0407
     23 C         139.4361  141.9492  165.6696 C.ar    1  UNL1        0.1386
     24 F         139.7508  143.2709  165.0341 F       1  UNL1       -0.2044
@<TRIPOS>BOND
     1     1     2    2
     2     2     3    1
     3     3     4   ar
     4     4     5   ar
     5     5     6   ar
     6     6     7   ar
     7     7     8   ar
     8     8     9   ar
     9     9    10    1
    10     9    11   ar
    11    11    12   ar
    12    12    13    1
    13    13    14    1
    14    14    15    1
    15    15    16    1
    16    16    17    1
    17    17    18   ar
    18    18    19   ar
    19    19    20   ar
    20    20    21    1
    21    20    22   ar
    22    22    23   ar
    23    23    24    1
    24    15     2   am
    25    23    17   ar
    26    12     3   ar
    27    11     5   ar
@<TRIPOS>MOLECULE
*****
 24 27 0 0 0
SMALL
GASTEIGER

@<TRIPOS>ATOM
      1 O         140.1087  145.3682  163.2409 O.2     1  UNL1       -0.2666
      2 C         139.6150  144.4529  162.1600 C.2     1  UNL1        0.2837
      3 C         140.1603  144.5736  160.7678 C.ar    1  UNL1        0.1985
      4 N         141.1828  145.4916  160.1665 N.ar    1  UNL1       -0.2226
      5 C         141.3211  145.1437  158.7140 C.ar    1  UNL1        0.0993
      6 C         142.1792  145.7123  157.6230 C.ar    1  UNL1        0.0207
      7 C         142.1001  145.1477  156.2355 C.ar    1  UNL1        0.0021
      8 C         141.1630  144.0146  155.9391 C.ar    1  UNL1        0.0082
      9 C         140.3049  143.4461  157.0301 C.ar    1  UNL1        0.0518
     10 BR        139.3677  142.3130  156.7337 Br      1  UNL1       -0.0474
     11 C         140.3839  144.0106  158.4175 C.ar    1  UNL1        0.0853
     12 N         139.6665  143.6583  159.6869 N.ar    1  UNL1       -0.3056
     13 C         138.6274  142.6223  159.9981 C.3     1  UNL1        0.1291
     14 C         138.0821  142.5015  161.3903 C.3     1  UNL1        0.1186
     15 N         138.5759  143.4168  162.4712 N.am    1  UNL1       -0.2674
     16 C         138.0306  143.2961  163.8634 C.3     1  UNL1        0.1228
     17 C         138.7601  142.4765  164.8862 C.ar    1  UNL1        0.0252
     18 C         139.7273  143.1356  165.8242 C.ar    1  UNL1        0.0005
     19 C         140.4569  142.3160  166.8471 C.ar    1  UNL1        0.0113
     20 C         140.2192  140.8374  166.9318 C.ar    1  UNL1        0.0599
     21 CL        140.9487  140.0179  167.9546 Cl      1  UNL1       -0.0822
     22 C         139.2519  140.1783  165.9936 C.ar    1  UNL1        0.0407
     23 C         138.5224  140.9979  164.9708 C.ar    1  UNL1        0.1386
     24 F         137.5552  140.3389  164.0327 F       1  UNL1       -0.2044
@<TRIPOS>BOND
     1     1     2    2
     2     2     3    1
     3     3     4   ar
     4     4     5   ar
     5     5     6   ar
     6     6     7   ar
     7     7     8   ar
     8     8     9   ar
     9     9    10    1
    10     9    11   ar
    11    11    12   ar
    12    12    13    1
    13    13    14    1
    14    14    15    1
    15    15    16    1
    16    16    17    1
    17    17    18   ar
    18    18    19   ar
    19    19    20   ar
    20    20    21    1
    21    20    22   ar
    22    22    23   ar
    23    23    24    1
    24    15     2   am
    25    23    17   ar
    26    12     3   ar
    27    11     5   ar
