@<TRIPOS>MOLECULE
*****
 26 28 0 0 0
SMALL
GASTEIGER

@<TRIPOS>ATOM
      1 C         141.1691  139.6800  166.4395 C.ar    1  UNL1       -0.0078
      2 C         140.4272  139.7203  165.1364 C.ar    1  UNL1        0.0001
      3 C         141.0600  139.1638  163.8956 C.ar    1  UNL1        0.0366
      4 C         142.4348  138.5669  163.9577 C.ar    1  UNL1        0.1390
      5 C         143.1767  138.5266  165.2608 C.ar    1  UNL1        0.0366
      6 C         142.5438  139.0831  166.5016 C.ar    1  UNL1        0.0001
      7 C         140.1015  141.6127  169.6317 C.3     1  UNL1        0.1315
      8 C         139.0234  140.5730  169.5483 C.3     1  UNL1        0.0268
      9 C         139.2922  139.7225  168.3423 C.3     1  UNL1        0.0221
     10 C         140.5363  140.2365  167.6804 C.3     1  UNL1        0.0772
     11 N         141.0364  141.4047  168.4773 N.3     1  UNL1       -0.2890
     12 H         141.0553  142.2401  167.8924 H       1  UNL1        0.1239
     13 N         140.0583  144.1187  170.3161 N.am    1  UNL1       -0.3277
     14 C         140.2232  142.6741  170.6847 C.2     1  UNL1        0.2336
     15 O         140.5097  142.2908  172.1063 O.2     1  UNL1       -0.2739
     16 H         140.1382  144.8153  171.0072 H       1  UNL1        0.1450
     17 H         139.8703  144.3702  169.3830 H       1  UNL1        0.1450
     18 O         143.0676  138.0104  162.7168 O.3     1  UNL1       -0.4706
     19 C         144.0841  138.8185  161.9662 C.3     1  UNL1        0.2320
     20 C         144.1733  140.3001  162.1832 C.ar    1  UNL1        0.0213
     21 C         143.2988  141.2279  161.3930 C.ar    1  UNL1        0.0016
     22 C         143.3880  142.7094  161.6101 C.ar    1  UNL1        0.0294
     23 C         144.3517  143.2631  162.6174 C.ar    1  UNL1        0.1401
     24 F         144.4409  144.7447  162.8345 F       1  UNL1       -0.2042
     25 C         145.2262  142.3353  163.4076 C.ar    1  UNL1        0.0294
     26 C         145.1370  140.8538  163.1905 C.ar    1  UNL1        0.0016
@<TRIPOS>BOND
     1    13    14   am
     2    14    15    2
     3     7    14    1
     4     7     8    1
     5     8     9    1
     6     9    10    1
     7    10     1    1
     8     1     2   ar
     9     2     3   ar
    10     3     4   ar
    11     4    18    1
    12    18    19    1
    13    19    20    1
    14    20    21   ar
    15    21    22   ar
    16    22    23   ar
    17    23    24    1
    18    23    25   ar
    19    25    26   ar
    20     4     5   ar
    21     5     6   ar
    22    10    11    1
    23    11     7    1
    24     6     1   ar
    25    26    20   ar
    26    13    16    1
    27    13    17    1
    28    11    12    1
@<TRIPOS>MOLECULE
*****
 26 28 0 0 0
SMALL
GASTEIGER

@<TRIPOS>ATOM
      1 C         140.4834  139.6663  166.6480 C.ar    1  UNL1       -0.0078
      2 C         138.9965  139.4697  166.6725 C.ar    1  UNL1        0.0001
      3 C         138.2755  139.0457  165.4275 C.ar    1  UNL1        0.0366
      4 C         139.0413  138.8182  164.1579 C.ar    1  UNL1        0.1390
      5 C         140.5281  139.0148  164.1334 C.ar    1  UNL1        0.0366
      6 C         141.2492  139.4388  165.3784 C.ar    1  UNL1        0.0001
      7 C         141.7963  141.2718  169.9289 C.3     1  UNL1        0.1315
      8 C         142.8322  140.2137  169.6893 C.3     1  UNL1        0.0268
      9 C         142.4665  139.4835  168.4311 C.3     1  UNL1        0.0221
     10 C         141.2045  140.0903  167.8931 C.3     1  UNL1        0.0772
     11 N         140.7903  141.1955  168.8188 N.3     1  UNL1       -0.2890
     12 H         139.8661  140.9978  169.2023 H       1  UNL1        0.1239
     13 N         142.8639  143.2529  171.2271 N.am    1  UNL1       -0.3277
     14 C         141.7708  142.2368  171.0771 C.2     1  UNL1        0.2336
     15 O         140.6522  142.1856  172.0751 O.2     1  UNL1       -0.2739
     16 H         142.8472  143.8862  171.9807 H       1  UNL1        0.1450
     17 H         143.5981  143.2865  170.5721 H       1  UNL1        0.1450
     18 O         138.3201  138.3942  162.9128 O.3     1  UNL1       -0.4706
     19 C         137.8410  139.4261  161.9353 C.3     1  UNL1        0.2320
     20 C         138.1451  140.8767  162.1666 C.ar    1  UNL1        0.0213
     21 C         139.3038  141.5212  161.4653 C.ar    1  UNL1        0.0016
     22 C         139.6079  142.9717  161.6966 C.ar    1  UNL1        0.0294
     23 C         138.7532  143.7777  162.6293 C.ar    1  UNL1        0.1401
     24 F         139.0573  145.2282  162.8607 F       1  UNL1       -0.2042
     25 C         137.5945  143.1332  163.3307 C.ar    1  UNL1        0.0294
     26 C         137.2904  141.6827  163.0993 C.ar    1  UNL1        0.0016
@<TRIPOS>BOND
     1    13    14   am
     2    14    15    2
     3     7    14    1
     4     7     8    1
     5     8     9    1
     6     9    10    1
     7    10     1    1
     8     1     2   ar
     9     2     3   ar
    10     3     4   ar
    11     4    18    1
    12    18    19    1
    13    19    20    1
    14    20    21   ar
    15    21    22   ar
    16    22    23   ar
    17    23    24    1
    18    23    25   ar
    19    25    26   ar
    20     4     5   ar
    21     5     6   ar
    22    10    11    1
    23    11     7    1
    24     6     1   ar
    25    26    20   ar
    26    13    16    1
    27    13    17    1
    28    11    12    1
@<TRIPOS>MOLECULE
*****
 26 28 0 0 0
SMALL
GASTEIGER

@<TRIPOS>ATOM
      1 C         142.9365  140.5531  166.4969 C.ar    1  UNL1       -0.0078
      2 C         143.0871  141.5044  165.3470 C.ar    1  UNL1        0.0001
      3 C         143.4647  140.9874  163.9905 C.ar    1  UNL1        0.0366
      4 C         143.6916  139.5191  163.7840 C.ar    1  UNL1        0.1390
      5 C         143.5410  138.5678  164.9339 C.ar    1  UNL1        0.0366
      6 C         143.1635  139.0849  166.2904 C.ar    1  UNL1        0.0001
      7 C         141.5127  141.2848  170.0329 C.3     1  UNL1        0.1315
      8 C         142.4433  142.4468  169.8491 C.3     1  UNL1        0.0268
      9 C         143.0899  142.3141  168.5021 C.3     1  UNL1        0.0221
     10 C         142.5590  141.0702  167.8535 C.3     1  UNL1        0.0772
     11 N         141.5842  140.4340  168.7996 N.3     1  UNL1       -0.2890
     12 H         141.9011  139.4959  169.0441 H       1  UNL1        0.1239
     13 N         140.0054  139.6822  171.4148 N.am    1  UNL1       -0.3277
     14 C         140.6602  141.0201  171.2384 C.2     1  UNL1        0.2336
     15 O         140.4626  142.0933  172.2676 O.2     1  UNL1       -0.2739
     16 H         139.4459  139.5084  172.2061 H       1  UNL1        0.1450
     17 H         140.1351  138.9778  170.7394 H       1  UNL1        0.1450
     18 O         144.0692  139.0021  162.4274 O.3     1  UNL1       -0.4706
     19 C         143.2688  137.9028  161.7943 C.3     1  UNL1        0.2320
     20 C         141.7721  137.9944  161.7504 C.ar    1  UNL1        0.0213
     21 C         141.0929  138.6095  160.5629 C.ar    1  UNL1        0.0016
     22 C         139.5963  138.7011  160.5191 C.ar    1  UNL1        0.0294
     23 C         138.7791  138.1775  161.6627 C.ar    1  UNL1        0.1401
     24 F         137.2825  138.2691  161.6189 F       1  UNL1       -0.2042
     25 C         139.4583  137.5624  162.8502 C.ar    1  UNL1        0.0294
     26 C         140.9549  137.4708  162.8940 C.ar    1  UNL1        0.0016
@<TRIPOS>BOND
     1    13    14   am
     2    14    15    2
     3     7    14    1
     4     7     8    1
     5     8     9    1
     6     9    10    1
     7    10     1    1
     8     1     2   ar
     9     2     3   ar
    10     3     4   ar
    11     4    18    1
    12    18    19    1
    13    19    20    1
    14    20    21   ar
    15    21    22   ar
    16    22    23   ar
    17    23    24    1
    18    23    25   ar
    19    25    26   ar
    20     4     5   ar
    21     5     6   ar
    22    10    11    1
    23    11     7    1
    24     6     1   ar
    25    26    20   ar
    26    13    16    1
    27    13    17    1
    28    11    12    1
@<TRIPOS>MOLECULE
*****
 26 28 0 0 0
SMALL
GASTEIGER

@<TRIPOS>ATOM
      1 C         142.6184  141.0436  165.9041 C.ar    1  UNL1       -0.0078
      2 C         142.4381  141.6974  164.5662 C.ar    1  UNL1        0.0001
      3 C         142.9310  141.0143  163.3251 C.ar    1  UNL1        0.0366
      4 C         143.6043  139.6774  163.4219 C.ar    1  UNL1        0.1390
      5 C         143.7846  139.0235  164.7598 C.ar    1  UNL1        0.0366
      6 C         143.2916  139.7067  166.0009 C.ar    1  UNL1        0.0001
      7 C         141.9964  142.5824  169.4127 C.3     1  UNL1        0.1315
      8 C         140.7372  142.9734  168.6974 C.3     1  UNL1        0.0268
      9 C         140.8169  142.4445  167.2960 C.3     1  UNL1        0.0221
     10 C         142.1254  141.7267  167.1452 C.3     1  UNL1        0.0772
     11 N         142.8543  141.8119  168.4534 N.3     1  UNL1       -0.2890
     12 H         143.7447  142.2920  168.3229 H       1  UNL1        0.1239
     13 N         143.3993  143.9200  171.1427 N.am    1  UNL1       -0.3277
     14 C         142.3377  142.9052  170.8373 C.2     1  UNL1        0.2336
     15 O         141.6174  142.2134  171.9564 O.2     1  UNL1       -0.2739
     16 H         143.6233  144.1318  172.0777 H       1  UNL1        0.1450
     17 H         143.8721  144.3741  170.4082 H       1  UNL1        0.1450
     18 O         144.0972  138.9942  162.1808 O.3     1  UNL1       -0.4706
     19 C         143.2802  137.9070  161.5482 C.3     1  UNL1        0.2320
     20 C         141.7822  137.9756  161.5868 C.ar    1  UNL1        0.0213
     21 C         141.0403  137.4946  162.7985 C.ar    1  UNL1        0.0016
     22 C         139.5424  137.5632  162.8370 C.ar    1  UNL1        0.0294
     23 C         138.7864  138.1128  161.6638 C.ar    1  UNL1        0.1401
     24 F         137.2884  138.1814  161.7023 F       1  UNL1       -0.2042
     25 C         139.5282  138.5937  160.4521 C.ar    1  UNL1        0.0294
     26 C         141.0261  138.5251  160.4136 C.ar    1  UNL1        0.0016
@<TRIPOS>BOND
     1    13    14   am
     2    14    15    2
     3     7    14    1
     4     7     8    1
     5     8     9    1
     6     9    10    1
     7    10     1    1
     8     1     2   ar
     9     2     3   ar
    10     3     4   ar
    11     4    18    1
    12    18    19    1
    13    19    20    1
    14    20    21   ar
    15    21    22   ar
    16    22    23   ar
    17    23    24    1
    18    23    25   ar
    19    25    26   ar
    20     4     5   ar
    21     5     6   ar
    22    10    11    1
    23    11     7    1
    24     6     1   ar
    25    26    20   ar
    26    13    16    1
    27    13    17    1
    28    11    12    1
@<TRIPOS>MOLECULE
*****
 26 28 0 0 0
SMALL
GASTEIGER

@<TRIPOS>ATOM
      1 C         139.5749  140.5189  166.1779 C.ar    1  UNL1       -0.0078
      2 C         139.5161  139.0208  166.1335 C.ar    1  UNL1        0.0001
      3 C         139.0112  138.3262  164.9037 C.ar    1  UNL1        0.0366
      4 C         138.5651  139.1297  163.7182 C.ar    1  UNL1        0.1390
      5 C         138.6240  140.6279  163.7626 C.ar    1  UNL1        0.0366
      6 C         139.1289  141.3225  164.9925 C.ar    1  UNL1        0.0001
      7 C         140.8259  141.6356  169.6785 C.3     1  UNL1        0.1315
      8 C         140.8878  142.9296  168.9222 C.3     1  UNL1        0.0268
      9 C         140.4267  142.6687  167.5189 C.3     1  UNL1        0.0221
     10 C         140.0799  141.2136  167.4078 C.3     1  UNL1        0.0772
     11 N         140.3266  140.5751  168.7425 N.3     1  UNL1       -0.2890
     12 H         141.0257  139.8382  168.6498 H       1  UNL1        0.1239
     13 N         142.3046  140.4926  171.4831 N.am    1  UNL1       -0.3277
     14 C         141.1980  141.4371  171.1180 C.2     1  UNL1        0.2336
     15 O         140.4635  142.1830  172.1923 O.2     1  UNL1       -0.2739
     16 H         142.5489  140.3623  172.4279 H       1  UNL1        0.1450
     17 H         142.7867  140.0031  170.7781 H       1  UNL1        0.1450
     18 O         138.0602  138.4351  162.4883 O.3     1  UNL1       -0.4706
     19 C         139.0018  138.1232  161.3632 C.3     1  UNL1        0.2320
     20 C         140.4322  138.5691  161.4367 C.ar    1  UNL1        0.0213
     21 C         141.4487  137.7161  162.1359 C.ar    1  UNL1        0.0016
     22 C         142.8790  138.1620  162.2094 C.ar    1  UNL1        0.0294
     23 C         143.2927  139.4610  161.5837 C.ar    1  UNL1        0.1401
     24 F         144.7230  139.9070  161.6572 F       1  UNL1       -0.2042
     25 C         142.2761  140.3141  160.8845 C.ar    1  UNL1        0.0294
     26 C         140.8459  139.8681  160.8110 C.ar    1  UNL1        0.0016
@<TRIPOS>BOND
     1    13    14   am
     2    14    15    2
     3     7    14    1
     4     7     8    1
     5     8     9    1
     6     9    10    1
     7    10     1    1
     8     1     2   ar
     9     2     3   ar
    10     3     4   ar
    11     4    18    1
    12    18    19    1
    13    19    20    1
    14    20    21   ar
    15    21    22   ar
    16    22    23   ar
    17    23    24    1
    18    23    25   ar
    19    25    26   ar
    20     4     5   ar
    21     5     6   ar
    22    10    11    1
    23    11     7    1
    24     6     1   ar
    25    26    20   ar
    26    13    16    1
    27    13    17    1
    28    11    12    1
@<TRIPOS>MOLECULE
*****
 26 28 0 0 0
SMALL
GASTEIGER

@<TRIPOS>ATOM
      1 C         139.9433  139.7911  166.5894 C.ar    1  UNL1       -0.0078
      2 C         138.6668  139.1415  166.1440 C.ar    1  UNL1        0.0001
      3 C         138.6399  138.3255  164.8857 C.ar    1  UNL1        0.0366
      4 C         139.8895  138.1592  164.0727 C.ar    1  UNL1        0.1390
      5 C         141.1660  138.8089  164.5181 C.ar    1  UNL1        0.0366
      6 C         141.1929  139.6249  165.7764 C.ar    1  UNL1        0.0001
      7 C         140.4296  142.3813  169.4390 C.3     1  UNL1        0.1315
      8 C         139.5938  141.3444  170.1293 C.3     1  UNL1        0.0268
      9 C         139.3100  140.2479  169.1458 C.3     1  UNL1        0.0221
     10 C         139.9702  140.6072  167.8477 C.3     1  UNL1        0.0772
     11 N         140.6622  141.9256  168.0290 N.3     1  UNL1       -0.2890
     12 H         140.2795  142.6099  167.3765 H       1  UNL1        0.1239
     13 N         140.0119  144.8063  170.2727 N.am    1  UNL1       -0.3277
     14 C         140.9426  143.6509  170.0513 C.2     1  UNL1        0.2336
     15 O         142.3862  143.7652  170.4423 O.2     1  UNL1       -0.2739
     16 H         140.3487  145.6396  170.6746 H       1  UNL1        0.1450
     17 H         139.0644  144.7313  170.0161 H       1  UNL1        0.1450
     18 O         139.8625  137.3432  162.8143 O.3     1  UNL1       -0.4706
     19 C         139.3489  137.9459  161.5404 C.3     1  UNL1        0.2320
     20 C         139.3445  139.4355  161.3639 C.ar    1  UNL1        0.0213
     21 C         140.6001  140.1459  160.9532 C.ar    1  UNL1        0.0016
     22 C         140.5956  141.6354  160.7767 C.ar    1  UNL1        0.0294
     23 C         139.3355  142.4146  161.0109 C.ar    1  UNL1        0.1401
     24 F         139.3310  143.9042  160.8344 F       1  UNL1       -0.2042
     25 C         138.0798  141.7043  161.4216 C.ar    1  UNL1        0.0294
     26 C         138.0843  140.2148  161.5981 C.ar    1  UNL1        0.0016
@<TRIPOS>BOND
     1    13    14   am
     2    14    15    2
     3     7    14    1
     4     7     8    1
     5     8     9    1
     6     9    10    1
     7    10     1    1
     8     1     2   ar
     9     2     3   ar
    10     3     4   ar
    11     4    18    1
    12    18    19    1
    13    19    20    1
    14    20    21   ar
    15    21    22   ar
    16    22    23   ar
    17    23    24    1
    18    23    25   ar
    19    25    26   ar
    20     4     5   ar
    21     5     6   ar
    22    10    11    1
    23    11     7    1
    24     6     1   ar
    25    26    20   ar
    26    13    16    1
    27    13    17    1
    28    11    12    1
@<TRIPOS>MOLECULE
*****
 26 28 0 0 0
SMALL
GASTEIGER

@<TRIPOS>ATOM
      1 C         140.5314  143.0175  166.1240 C.ar    1  UNL1       -0.0078
      2 C         139.3528  143.8780  165.7770 C.ar    1  UNL1        0.0001
      3 C         139.3791  144.7212  164.5368 C.ar    1  UNL1        0.0366
      4 C         140.5839  144.7038  163.6435 C.ar    1  UNL1        0.1390
      5 C         141.7625  143.8433  163.9904 C.ar    1  UNL1        0.0366
      6 C         141.7362  143.0002  165.2307 C.ar    1  UNL1        0.0001
      7 C         140.8311  141.4142  169.6461 C.3     1  UNL1        0.1315
      8 C         140.0983  140.3391  168.8997 C.3     1  UNL1        0.0268
      9 C         139.8968  140.8088  167.4895 C.3     1  UNL1        0.0221
     10 C         140.5051  142.1743  167.3643 C.3     1  UNL1        0.0772
     11 N         141.0825  142.5484  168.6972 N.3     1  UNL1       -0.2890
     12 H         140.6328  143.3958  169.0437 H       1  UNL1        0.1239
     13 N         142.3945  140.5038  171.5108 N.am    1  UNL1       -0.3277
     14 C         141.2406  141.3640  171.0883 C.2     1  UNL1        0.2336
     15 O         140.4962  142.1739  172.1080 O.2     1  UNL1       -0.2739
     16 H         142.6632  140.4708  172.4573 H       1  UNL1        0.1450
     17 H         142.8831  139.9721  170.8415 H       1  UNL1        0.1450
     18 O         140.6102  145.5471  162.4031 O.3     1  UNL1       -0.4706
     19 C         140.0922  144.9936  161.1088 C.3     1  UNL1        0.2320
     20 C         139.8058  143.5266  160.9816 C.ar    1  UNL1        0.0213
     21 C         140.8695  142.5955  160.4802 C.ar    1  UNL1        0.0016
     22 C         140.5830  141.1286  160.3530 C.ar    1  UNL1        0.0294
     23 C         139.2328  140.5929  160.7271 C.ar    1  UNL1        0.1401
     24 F         138.9464  139.1260  160.5999 F       1  UNL1       -0.2042
     25 C         138.1691  141.5241  161.2285 C.ar    1  UNL1        0.0294
     26 C         138.4556  142.9909  161.3557 C.ar    1  UNL1        0.0016
@<TRIPOS>BOND
     1    13    14   am
     2    14    15    2
     3     7    14    1
     4     7     8    1
     5     8     9    1
     6     9    10    1
     7    10     1    1
     8     1     2   ar
     9     2     3   ar
    10     3     4   ar
    11     4    18    1
    12    18    19    1
    13    19    20    1
    14    20    21   ar
    15    21    22   ar
    16    22    23   ar
    17    23    24    1
    18    23    25   ar
    19    25    26   ar
    20     4     5   ar
    21     5     6   ar
    22    10    11    1
    23    11     7    1
    24     6     1   ar
    25    26    20   ar
    26    13    16    1
    27    13    17    1
    28    11    12    1
@<TRIPOS>MOLECULE
*****
 26 28 0 0 0
SMALL
GASTEIGER

@<TRIPOS>ATOM
      1 C         139.8224  142.7912  166.3669 C.ar    1  UNL1       -0.0078
      2 C         139.4051  144.0719  165.7070 C.ar    1  UNL1        0.0001
      3 C         138.6085  144.0361  164.4365 C.ar    1  UNL1        0.0366
      4 C         138.2294  142.7195  163.8259 C.ar    1  UNL1        0.1390
      5 C         138.6468  141.4388  164.4859 C.ar    1  UNL1        0.0366
      6 C         139.4433  141.4746  165.7563 C.ar    1  UNL1        0.0001
      7 C         142.3855  142.4788  169.2650 C.3     1  UNL1        0.1315
      8 C         141.3040  143.2858  169.9203 C.3     1  UNL1        0.0268
      9 C         140.2123  143.5010  168.9144 C.3     1  UNL1        0.0221
     10 C         140.6190  142.8271  167.6375 C.3     1  UNL1        0.0772
     11 N         141.9621  142.1953  167.8542 N.3     1  UNL1       -0.2890
     12 H         142.6400  142.5914  167.2032 H       1  UNL1        0.1239
     13 N         143.7438  140.6908  170.5721 N.am    1  UNL1       -0.3277
     14 C         143.6655  142.0335  169.9078 C.2     1  UNL1        0.2336
     15 O         144.8674  142.9307  169.8863 O.2     1  UNL1       -0.2739
     16 H         144.5839  140.3986  170.9939 H       1  UNL1        0.1450
     17 H         142.9550  140.1019  170.5862 H       1  UNL1        0.1450
     18 O         137.4328  142.6836  162.5554 O.3     1  UNL1       -0.4706
     19 C         138.1293  142.5111  161.2382 C.3     1  UNL1        0.2320
     20 C         139.6086  142.7380  161.1365 C.ar    1  UNL1        0.0213
     21 C         140.5515  141.5727  161.1900 C.ar    1  UNL1        0.0016
     22 C         142.0307  141.7997  161.0883 C.ar    1  UNL1        0.0294
     23 C         142.5670  143.1919  160.9331 C.ar    1  UNL1        0.1401
     24 F         144.0463  143.4189  160.8314 F       1  UNL1       -0.2042
     25 C         141.6240  144.3572  160.8796 C.ar    1  UNL1        0.0294
     26 C         140.1448  144.1302  160.9813 C.ar    1  UNL1        0.0016
@<TRIPOS>BOND
     1    13    14   am
     2    14    15    2
     3     7    14    1
     4     7     8    1
     5     8     9    1
     6     9    10    1
     7    10     1    1
     8     1     2   ar
     9     2     3   ar
    10     3     4   ar
    11     4    18    1
    12    18    19    1
    13    19    20    1
    14    20    21   ar
    15    21    22   ar
    16    22    23   ar
    17    23    24    1
    18    23    25   ar
    19    25    26   ar
    20     4     5   ar
    21     5     6   ar
    22    10    11    1
    23    11     7    1
    24     6     1   ar
    25    26    20   ar
    26    13    16    1
    27    13    17    1
    28    11    12    1
@<TRIPOS>MOLECULE
*****
 26 28 0 0 0
SMALL
GASTEIGER

@<TRIPOS>ATOM
      1 C         141.7766  142.0356  166.2744 C.ar    1  UNL1       -0.0078
      2 C         143.2756  141.9813  166.2784 C.ar    1  UNL1        0.0001
      3 C         144.0537  142.6662  165.1943 C.ar    1  UNL1        0.0366
      4 C         143.3329  143.4054  164.1062 C.ar    1  UNL1        0.1390
      5 C         141.8340  143.4597  164.1022 C.ar    1  UNL1        0.0366
      6 C         141.0558  142.7748  165.1863 C.ar    1  UNL1        0.0001
      7 C         140.2703  140.5763  169.5405 C.3     1  UNL1        0.1315
      8 C         139.3310  140.0174  168.5131 C.3     1  UNL1        0.0268
      9 C         139.7810  140.4960  167.1646 C.3     1  UNL1        0.0221
     10 C         140.9983  141.3508  167.3586 C.3     1  UNL1        0.0772
     11 N         141.3007  141.4004  168.8269 N.3     1  UNL1       -0.2890
     12 H         141.2611  142.3650  169.1561 H       1  UNL1        0.1239
     13 N         139.6432  139.0615  171.5560 N.am    1  UNL1       -0.3277
     14 C         140.1927  140.3508  171.0214 C.2     1  UNL1        0.2336
     15 O         140.6647  141.4145  171.9678 O.2     1  UNL1       -0.2739
     16 H         139.5923  138.9135  172.5279 H       1  UNL1        0.1450
     17 H         139.3335  138.3633  170.9348 H       1  UNL1        0.1450
     18 O         144.1112  144.0902  163.0220 O.3     1  UNL1       -0.4706
     19 C         144.4733  143.3435  161.7726 C.3     1  UNL1        0.2320
     20 C         143.9002  141.9803  161.5208 C.ar    1  UNL1        0.0213
     21 C         144.5985  140.7635  162.0514 C.ar    1  UNL1        0.0016
     22 C         144.0254  139.4004  161.7996 C.ar    1  UNL1        0.0294
     23 C         142.7541  139.2541  161.0172 C.ar    1  UNL1        0.1401
     24 F         142.1810  137.8909  160.7654 F       1  UNL1       -0.2042
     25 C         142.0558  140.4709  160.4865 C.ar    1  UNL1        0.0294
     26 C         142.6289  141.8340  160.7383 C.ar    1  UNL1        0.0016
@<TRIPOS>BOND
     1    13    14   am
     2    14    15    2
     3     7    14    1
     4     7     8    1
     5     8     9    1
     6     9    10    1
     7    10     1    1
     8     1     2   ar
     9     2     3   ar
    10     3     4   ar
    11     4    18    1
    12    18    19    1
    13    19    20    1
    14    20    21   ar
    15    21    22   ar
    16    22    23   ar
    17    23    24    1
    18    23    25   ar
    19    25    26   ar
    20     4     5   ar
    21     5     6   ar
    22    10    11    1
    23    11     7    1
    24     6     1   ar
    25    26    20   ar
    26    13    16    1
    27    13    17    1
    28    11    12    1
