@<TRIPOS>MOLECULE
*****
 35 39 0 0 0
SMALL
GASTEIGER

@<TRIPOS>ATOM
      1 C         142.7307  141.5866  164.2772 C.ar    1  UNL1        0.0878
      2 C         143.7628  142.3497  165.0532 C.ar    1  UNL1        0.1543
      3 F         144.9679  142.9052  164.3537 F       1  UNL1       -0.2028
      4 C         143.5899  142.5574  166.5286 C.ar    1  UNL1        0.0356
      5 C         142.3847  142.0020  167.2280 C.ar    1  UNL1        0.0580
      6 C         142.2118  142.2097  168.7035 C.ar    1  UNL1        0.1996
      7 O         143.2440  142.9729  169.4795 O.2     1  UNL1       -0.2864
      8 C         141.0067  141.6543  169.4029 C.ar    1  UNL1        0.0701
      9 C         139.9745  140.8911  168.6268 C.ar    1  UNL1        0.0801
     10 N         140.1475  140.6834  167.1514 N.ar    1  UNL1       -0.3270
     11 C         141.3526  141.2388  166.4520 C.ar    1  UNL1        0.0750
     12 C         141.5256  141.0311  164.9766 C.ar    1  UNL1        0.0890
     13 CL        140.4934  140.2679  164.2005 Cl      1  UNL1       -0.0794
     14 C         143.0777  140.3205  160.6244 C.3     1  UNL1        0.0930
     15 C         143.2617  141.7975  160.4380 C.3     1  UNL1        0.0427
     16 C         143.1541  142.4515  161.7836 C.3     1  UNL1        0.0927
     17 N         142.9036  141.3788  162.8017 N.pl3   1  UNL1       -0.3033
     18 C         142.8563  140.0618  162.0852 C.3     1  UNL1        0.1104
     19 C         141.8309  138.8248  158.9044 C.2     1  UNL1        0.2475
     20 O         140.5207  139.4015  159.3527 O.2     1  UNL1       -0.2729
     21 N         143.1094  139.2843  159.5403 N.am    1  UNL1       -0.3026
     22 H         143.9693  138.9059  159.2462 H       1  UNL1        0.1495
     23 C         141.8626  137.7886  157.8204 C.3     1  UNL1        0.2149
     24 C         142.8363  135.1032  156.2422 C.3     1  UNL1        0.0754
     25 C         143.5070  136.4443  156.1974 C.ar    1  UNL1        0.1619
     26 N         144.7429  136.7864  155.4193 N.ar    1  UNL1       -0.1127
     27 N         145.0592  138.2320  155.6638 N.ar    1  UNL1       -0.0230
     28 N         144.0188  138.7835  156.5930 N.ar    1  UNL1       -0.0427
     29 N         143.0594  137.6785  156.9228 N.ar    1  UNL1       -0.2076
     30 C         140.8338  141.8620  170.8783 C.2     1  UNL1        0.0774
     31 O         139.7846  142.8069  171.3848 O.co2   1  UNL1       -0.5444
     32 O         141.7100  141.1248  171.8473 O.co2   1  UNL1       -0.5444
     33 C         139.1153  139.9202  166.3754 C.3     1  UNL1        0.0857
     34 C         138.4168  138.6303  166.0622 C.3     1  UNL1        0.0245
     35 C         138.0261  139.8883  165.3447 C.3     1  UNL1        0.0245
@<TRIPOS>UNITY_ATOM_ATTR
31 1
charge -1
@<TRIPOS>BOND
     1    24    25    1
     2    25    26   ar
     3    26    27   ar
     4    27    28   ar
     5    28    29   ar
     6    29    23    1
     7    23    19    1
     8    19    20    2
     9    19    21   am
    10    21    14    1
    11    14    15    1
    12    15    16    1
    13    16    17    1
    14    17     1    1
    15     1     2   ar
    16     2     3    1
    17     2     4   ar
    18     4     5   ar
    19     5     6   ar
    20     6     7    2
    21     6     8   ar
    22     8    30    1
    23    30    31   ar
    24    30    32   ar
    25     8     9   ar
    26     9    10   ar
    27    10    33    1
    28    33    34    1
    29    34    35    1
    30    10    11   ar
    31    11    12   ar
    32    12    13    1
    33    17    18    1
    34    29    25   ar
    35    18    14    1
    36    12     1   ar
    37    11     5   ar
    38    35    33    1
    39    21    22    1
@<TRIPOS>MOLECULE
*****
 35 39 0 0 0
SMALL
GASTEIGER

@<TRIPOS>ATOM
      1 C         139.7989  139.5967  162.8921 C.ar    1  UNL1        0.0878
      2 C         138.6691  138.7953  163.4676 C.ar    1  UNL1        0.1543
      3 F         137.7777  137.9980  162.5621 F       1  UNL1       -0.2028
      4 C         138.4307  138.7910  164.9485 C.ar    1  UNL1        0.0356
      5 C         139.3222  139.5882  165.8539 C.ar    1  UNL1        0.0580
      6 C         139.0838  139.5840  167.3349 C.ar    1  UNL1        0.1996
      7 O         137.9540  138.7825  167.9103 O.2     1  UNL1       -0.2864
      8 C         139.9752  140.3812  168.2403 C.ar    1  UNL1        0.0701
      9 C         141.1050  141.1827  167.6647 C.ar    1  UNL1        0.0801
     10 N         141.3434  141.1869  166.1838 N.ar    1  UNL1       -0.3270
     11 C         140.4519  140.3897  165.2784 C.ar    1  UNL1        0.0750
     12 C         140.6903  140.3939  163.7975 C.ar    1  UNL1        0.0890
     13 CL        141.8201  141.1954  163.2220 Cl      1  UNL1       -0.0794
     14 C         140.6200  138.8900  159.1649 C.3     1  UNL1        0.0930
     15 C         140.1883  140.3250  159.0995 C.3     1  UNL1        0.0427
     16 C         139.8281  140.7644  160.4877 C.3     1  UNL1        0.0927
     17 N         140.0373  139.6010  161.4111 N.pl3   1  UNL1       -0.3033
     18 C         140.5267  138.4425  160.5935 C.3     1  UNL1        0.1104
     19 C         142.5292  137.8158  157.7680 C.2     1  UNL1        0.2475
     20 O         143.5451  138.4218  158.6905 O.2     1  UNL1       -0.2729
     21 N         141.0667  138.0499  158.0052 N.am    1  UNL1       -0.3026
     22 H         140.3999  137.6522  157.3998 H       1  UNL1        0.1495
     23 C         142.9758  136.9757  156.6084 C.3     1  UNL1        0.2149
     24 C         141.0299  135.3073  154.5887 C.3     1  UNL1        0.0754
     25 C         141.8563  134.7259  155.6974 C.ar    1  UNL1        0.1619
     26 N         141.9333  133.2756  156.0724 N.ar    1  UNL1       -0.1127
     27 N         142.8752  133.1462  157.2325 N.ar    1  UNL1       -0.0230
     28 N         143.3805  134.5165  157.5745 N.ar    1  UNL1       -0.0427
     29 N         142.7507  135.4928  156.6257 N.ar    1  UNL1       -0.2076
     30 C         139.7368  140.3769  169.7212 C.2     1  UNL1        0.0774
     31 O         138.8093  141.3837  170.3345 O.co2   1  UNL1       -0.5444
     32 O         140.4260  139.3659  170.5889 O.co2   1  UNL1       -0.5444
     33 C         142.4731  141.9884  165.6084 C.3     1  UNL1        0.0857
     34 C         143.9277  142.1252  165.2686 C.3     1  UNL1        0.0245
     35 C         142.9754  143.2398  164.9513 C.3     1  UNL1        0.0245
@<TRIPOS>UNITY_ATOM_ATTR
31 1
charge -1
@<TRIPOS>BOND
     1    24    25    1
     2    25    26   ar
     3    26    27   ar
     4    27    28   ar
     5    28    29   ar
     6    29    23    1
     7    23    19    1
     8    19    20    2
     9    19    21   am
    10    21    14    1
    11    14    15    1
    12    15    16    1
    13    16    17    1
    14    17     1    1
    15     1     2   ar
    16     2     3    1
    17     2     4   ar
    18     4     5   ar
    19     5     6   ar
    20     6     7    2
    21     6     8   ar
    22     8    30    1
    23    30    31   ar
    24    30    32   ar
    25     8     9   ar
    26     9    10   ar
    27    10    33    1
    28    33    34    1
    29    34    35    1
    30    10    11   ar
    31    11    12   ar
    32    12    13    1
    33    17    18    1
    34    29    25   ar
    35    18    14    1
    36    12     1   ar
    37    11     5   ar
    38    35    33    1
    39    21    22    1
@<TRIPOS>MOLECULE
*****
 35 39 0 0 0
SMALL
GASTEIGER

@<TRIPOS>ATOM
      1 C         139.1815  141.0502  161.8400 C.ar    1  UNL1        0.0878
      2 C         138.4051  140.7757  160.5864 C.ar    1  UNL1        0.1543
      3 F         137.5068  139.5770  160.5078 F       1  UNL1       -0.2028
      4 C         138.5269  141.6999  159.4112 C.ar    1  UNL1        0.0356
      5 C         139.4251  142.8986  159.4898 C.ar    1  UNL1        0.0580
      6 C         139.5469  143.8228  158.3146 C.ar    1  UNL1        0.1996
      7 O         138.7705  143.5483  157.0609 O.2     1  UNL1       -0.2864
      8 C         140.4452  145.0216  158.3931 C.ar    1  UNL1        0.0701
      9 C         141.2217  145.2960  159.6468 C.ar    1  UNL1        0.0801
     10 N         141.0999  144.3718  160.8220 N.ar    1  UNL1       -0.3270
     11 C         140.2016  143.1731  160.7434 C.ar    1  UNL1        0.0750
     12 C         140.0798  142.2489  161.9185 C.ar    1  UNL1        0.0890
     13 CL        140.8563  142.5234  163.1723 Cl      1  UNL1       -0.0794
     14 C         138.7109  139.2876  165.2661 C.3     1  UNL1        0.0930
     15 C         139.0336  138.1201  164.3813 C.3     1  UNL1        0.0427
     16 C         139.2492  138.6382  162.9902 C.3     1  UNL1        0.0927
     17 N         139.0597  140.1260  163.0152 N.pl3   1  UNL1       -0.3033
     18 C         138.7271  140.5273  164.4218 C.3     1  UNL1        0.1104
     19 C         139.2989  139.9654  167.7043 C.2     1  UNL1        0.2475
     20 O         140.4632  140.7661  167.2009 O.2     1  UNL1       -0.2729
     21 N         138.4227  139.2262  166.7368 N.am    1  UNL1       -0.3026
     22 H         137.6585  138.7007  167.0671 H       1  UNL1        0.1495
     23 C         139.0107  139.9040  169.1750 C.3     1  UNL1        0.2149
     24 C         142.0682  139.1819  170.0581 C.3     1  UNL1        0.0754
     25 C         141.2626  140.3502  170.5443 C.ar    1  UNL1        0.1619
     26 N         141.7210  141.3916  171.5216 N.ar    1  UNL1       -0.1127
     27 N         140.5990  142.3671  171.7197 N.ar    1  UNL1       -0.0230
     28 N         139.4471  141.9286  170.8648 N.ar    1  UNL1       -0.0427
     29 N         139.8572  140.6821  170.1383 N.ar    1  UNL1       -0.2076
     30 C         140.5670  145.9458  157.2180 C.2     1  UNL1        0.0774
     31 O         141.7574  145.8519  156.3102 O.co2   1  UNL1       -0.5444
     32 O         139.4984  146.9639  156.9506 O.co2   1  UNL1       -0.5444
     33 C         141.8763  144.6464  162.0756 C.3     1  UNL1        0.0857
     34 C         143.1288  144.4957  162.8871 C.3     1  UNL1        0.0245
     35 C         141.9688  145.2725  163.4355 C.3     1  UNL1        0.0245
@<TRIPOS>UNITY_ATOM_ATTR
31 1
charge -1
@<TRIPOS>BOND
     1    24    25    1
     2    25    26   ar
     3    26    27   ar
     4    27    28   ar
     5    28    29   ar
     6    29    23    1
     7    23    19    1
     8    19    20    2
     9    19    21   am
    10    21    14    1
    11    14    15    1
    12    15    16    1
    13    16    17    1
    14    17     1    1
    15     1     2   ar
    16     2     3    1
    17     2     4   ar
    18     4     5   ar
    19     5     6   ar
    20     6     7    2
    21     6     8   ar
    22     8    30    1
    23    30    31   ar
    24    30    32   ar
    25     8     9   ar
    26     9    10   ar
    27    10    33    1
    28    33    34    1
    29    34    35    1
    30    10    11   ar
    31    11    12   ar
    32    12    13    1
    33    17    18    1
    34    29    25   ar
    35    18    14    1
    36    12     1   ar
    37    11     5   ar
    38    35    33    1
    39    21    22    1
@<TRIPOS>MOLECULE
*****
 35 39 0 0 0
SMALL
GASTEIGER

@<TRIPOS>ATOM
      1 C         139.3111  139.7046  163.8994 C.ar    1  UNL1        0.0878
      2 C         138.8899  138.6945  164.9251 C.ar    1  UNL1        0.1543
      3 F         138.3281  137.3734  164.4902 F       1  UNL1       -0.2028
      4 C         139.0305  139.0054  166.3857 C.ar    1  UNL1        0.0356
      5 C         139.5923  140.3265  166.8206 C.ar    1  UNL1        0.0580
      6 C         139.7329  140.6374  168.2814 C.ar    1  UNL1        0.1996
      7 O         139.3117  139.6273  169.3071 O.2     1  UNL1       -0.2864
      8 C         140.2947  141.9585  168.7163 C.ar    1  UNL1        0.0701
      9 C         140.7159  142.9686  167.6904 C.ar    1  UNL1        0.0801
     10 N         140.5753  142.6577  166.2298 N.ar    1  UNL1       -0.3270
     11 C         140.0135  141.3366  165.7949 C.ar    1  UNL1        0.0750
     12 C         139.8729  141.0257  164.3343 C.ar    1  UNL1        0.0890
     13 CL        140.2941  142.0358  163.3084 Cl      1  UNL1       -0.0794
     14 C         138.4508  139.4671  160.1219 C.3     1  UNL1        0.0930
     15 C         139.4574  138.3635  160.2599 C.3     1  UNL1        0.0427
     16 C         139.9022  138.3182  161.6917 C.3     1  UNL1        0.0927
     17 N         139.1705  139.3937  162.4386 N.pl3   1  UNL1       -0.3033
     18 C         138.2735  140.1037  161.4684 C.3     1  UNL1        0.1104
     19 C         138.1177  141.1387  158.1611 C.2     1  UNL1        0.2475
     20 O         139.1953  142.0161  158.7260 O.2     1  UNL1       -0.2729
     21 N         137.7455  139.8642  158.8591 N.am    1  UNL1       -0.3026
     22 H         137.0382  139.2884  158.4883 H       1  UNL1        0.1495
     23 C         137.4123  141.5358  156.8983 C.3     1  UNL1        0.2149
     24 C         137.8341  140.0285  154.0347 C.3     1  UNL1        0.0754
     25 C         136.6401  139.8966  154.9332 C.ar    1  UNL1        0.1619
     26 N         135.4304  139.0486  154.6731 N.ar    1  UNL1       -0.1127
     27 N         134.4890  139.2174  155.8285 N.ar    1  UNL1       -0.0230
     28 N         135.1168  140.1696  156.8027 N.ar    1  UNL1       -0.0427
     29 N         136.4462  140.5894  156.2494 N.ar    1  UNL1       -0.2076
     30 C         140.4353  142.2694  170.1769 C.2     1  UNL1        0.0774
     31 O         139.5866  143.3369  170.8016 O.co2   1  UNL1       -0.5444
     32 O         141.4247  141.5129  171.0129 O.co2   1  UNL1       -0.5444
     33 C         140.9965  143.6678  165.2041 C.3     1  UNL1        0.0857
     34 C         142.0606  144.2723  164.3367 C.3     1  UNL1        0.0245
     35 C         140.6620  144.8129  164.2948 C.3     1  UNL1        0.0245
@<TRIPOS>UNITY_ATOM_ATTR
31 1
charge -1
@<TRIPOS>BOND
     1    24    25    1
     2    25    26   ar
     3    26    27   ar
     4    27    28   ar
     5    28    29   ar
     6    29    23    1
     7    23    19    1
     8    19    20    2
     9    19    21   am
    10    21    14    1
    11    14    15    1
    12    15    16    1
    13    16    17    1
    14    17     1    1
    15     1     2   ar
    16     2     3    1
    17     2     4   ar
    18     4     5   ar
    19     5     6   ar
    20     6     7    2
    21     6     8   ar
    22     8    30    1
    23    30    31   ar
    24    30    32   ar
    25     8     9   ar
    26     9    10   ar
    27    10    33    1
    28    33    34    1
    29    34    35    1
    30    10    11   ar
    31    11    12   ar
    32    12    13    1
    33    17    18    1
    34    29    25   ar
    35    18    14    1
    36    12     1   ar
    37    11     5   ar
    38    35    33    1
    39    21    22    1
@<TRIPOS>MOLECULE
*****
 35 39 0 0 0
SMALL
GASTEIGER

@<TRIPOS>ATOM
      1 C         142.1150  142.4500  163.8409 C.ar    1  UNL1        0.0878
      2 C         143.2024  143.2338  164.5140 C.ar    1  UNL1        0.1543
      3 F         144.0133  144.2201  163.7268 F       1  UNL1       -0.2028
      4 C         143.4788  143.0314  165.9743 C.ar    1  UNL1        0.0356
      5 C         142.6678  142.0452  166.7615 C.ar    1  UNL1        0.0580
      6 C         142.9443  141.8428  168.2219 C.ar    1  UNL1        0.1996
      7 O         144.0317  142.6266  168.8951 O.2     1  UNL1       -0.2864
      8 C         142.1334  140.8565  169.0091 C.ar    1  UNL1        0.0701
      9 C         141.0459  140.0726  168.3359 C.ar    1  UNL1        0.0801
     10 N         140.7695  140.2751  166.8756 N.ar    1  UNL1       -0.3270
     11 C         141.5805  141.2613  166.0884 C.ar    1  UNL1        0.0750
     12 C         141.3040  141.4637  164.6281 C.ar    1  UNL1        0.0890
     13 CL        140.2166  140.6799  163.9549 Cl      1  UNL1       -0.0794
     14 C         140.9300  143.5126  160.3008 C.3     1  UNL1        0.0930
     15 C         141.8961  142.4151  159.9658 C.3     1  UNL1        0.0427
     16 C         142.4576  141.8835  161.2511 C.3     1  UNL1        0.0927
     17 N         141.8385  142.6524  162.3805 N.pl3   1  UNL1       -0.3033
     18 C         140.8944  143.6592  161.7932 C.3     1  UNL1        0.1104
     19 C         140.8155  145.3835  158.5017 C.2     1  UNL1        0.2475
     20 O         142.2843  145.6367  158.6717 O.2     1  UNL1       -0.2729
     21 N         140.1384  144.3214  159.3163 N.am    1  UNL1       -0.3026
     22 H         139.1745  144.1552  159.2047 H       1  UNL1        0.1495
     23 C         140.0240  146.1923  157.5172 C.3     1  UNL1        0.2149
     24 C         139.0283  148.3832  155.3131 C.3     1  UNL1        0.0754
     25 C         139.9966  147.2639  155.0685 C.ar    1  UNL1        0.1619
     26 N         140.6771  146.9552  153.7679 N.ar    1  UNL1       -0.1127
     27 N         141.5554  145.7574  153.9773 N.ar    1  UNL1       -0.0230
     28 N         141.4176  145.3258  155.4072 N.ar    1  UNL1       -0.0427
     29 N         140.4542  146.2569  156.0816 N.ar    1  UNL1       -0.2076
     30 C         142.4098  140.6541  170.4694 C.2     1  UNL1        0.0774
     31 O         143.4287  139.6439  170.9069 O.co2   1  UNL1       -0.5444
     32 O         141.6673  141.4619  171.4923 O.co2   1  UNL1       -0.5444
     33 C         139.6821  139.4912  166.2024 C.3     1  UNL1        0.0857
     34 C         139.2418  138.2941  165.4132 C.3     1  UNL1        0.0245
     35 C         138.2392  139.3306  165.8257 C.3     1  UNL1        0.0245
@<TRIPOS>UNITY_ATOM_ATTR
31 1
charge -1
@<TRIPOS>BOND
     1    24    25    1
     2    25    26   ar
     3    26    27   ar
     4    27    28   ar
     5    28    29   ar
     6    29    23    1
     7    23    19    1
     8    19    20    2
     9    19    21   am
    10    21    14    1
    11    14    15    1
    12    15    16    1
    13    16    17    1
    14    17     1    1
    15     1     2   ar
    16     2     3    1
    17     2     4   ar
    18     4     5   ar
    19     5     6   ar
    20     6     7    2
    21     6     8   ar
    22     8    30    1
    23    30    31   ar
    24    30    32   ar
    25     8     9   ar
    26     9    10   ar
    27    10    33    1
    28    33    34    1
    29    34    35    1
    30    10    11   ar
    31    11    12   ar
    32    12    13    1
    33    17    18    1
    34    29    25   ar
    35    18    14    1
    36    12     1   ar
    37    11     5   ar
    38    35    33    1
    39    21    22    1
@<TRIPOS>MOLECULE
*****
 35 39 0 0 0
SMALL
GASTEIGER

@<TRIPOS>ATOM
      1 C         142.7138  140.7435  164.5949 C.ar    1  UNL1        0.0878
      2 C         143.6982  141.6401  165.2854 C.ar    1  UNL1        0.1543
      3 F         144.9647  142.0408  164.5886 F       1  UNL1       -0.2028
      4 C         143.4162  142.1361  166.6726 C.ar    1  UNL1        0.0356
      5 C         142.1497  141.7355  167.3693 C.ar    1  UNL1        0.0580
      6 C         141.8676  142.2315  168.7566 C.ar    1  UNL1        0.1996
      7 O         142.8521  143.1282  169.4471 O.2     1  UNL1       -0.2864
      8 C         140.6011  141.8309  169.4533 C.ar    1  UNL1        0.0701
      9 C         139.6166  140.9342  168.7627 C.ar    1  UNL1        0.0801
     10 N         139.8987  140.4382  167.3755 N.ar    1  UNL1       -0.3270
     11 C         141.1652  140.8388  166.6788 C.ar    1  UNL1        0.0750
     12 C         141.4473  140.3428  165.2916 C.ar    1  UNL1        0.0890
     13 CL        140.4628  139.4461  164.6011 Cl      1  UNL1       -0.0794
     14 C         142.9026  139.9435  160.8014 C.3     1  UNL1        0.0930
     15 C         143.9568  139.0248  161.3443 C.3     1  UNL1        0.0427
     16 C         144.0144  139.2126  162.8313 C.3     1  UNL1        0.0927
     17 N         142.9958  140.2474  163.2076 N.pl3   1  UNL1       -0.3033
     18 C         142.3087  140.6992  161.9531 C.3     1  UNL1        0.1104
     19 C         141.1983  139.5353  158.8835 C.2     1  UNL1        0.2475
     20 O         140.2768  138.8496  159.8483 O.2     1  UNL1       -0.2729
     21 N         142.5112  140.0823  159.3601 N.am    1  UNL1       -0.3026
     22 H         143.1159  140.5323  158.7269 H       1  UNL1        0.1495
     23 C         140.8068  139.6741  157.4422 C.3     1  UNL1        0.2149
     24 C         142.1865  136.7869  156.8018 C.3     1  UNL1        0.0754
     25 C         140.7921  137.1989  156.4330 C.ar    1  UNL1        0.1619
     26 N         139.7871  136.3562  155.7051 N.ar    1  UNL1       -0.1127
     27 N         138.5319  137.1624  155.5497 N.ar    1  UNL1       -0.0230
     28 N         138.7610  138.5035  156.1814 N.ar    1  UNL1       -0.0427
     29 N         140.1579  138.5260  156.7273 N.ar    1  UNL1       -0.2076
     30 C         140.3191  142.3269  170.8405 C.2     1  UNL1        0.0774
     31 O         141.0767  141.7646  172.0066 O.co2   1  UNL1       -0.5444
     32 O         139.2793  143.3852  171.0617 O.co2   1  UNL1       -0.5444
     33 C         138.9142  139.5415  166.6851 C.3     1  UNL1        0.0857
     34 C         137.9522  139.2894  165.5622 C.3     1  UNL1        0.0245
     35 C         138.1711  138.2406  166.6119 C.3     1  UNL1        0.0245
@<TRIPOS>UNITY_ATOM_ATTR
31 1
charge -1
@<TRIPOS>BOND
     1    24    25    1
     2    25    26   ar
     3    26    27   ar
     4    27    28   ar
     5    28    29   ar
     6    29    23    1
     7    23    19    1
     8    19    20    2
     9    19    21   am
    10    21    14    1
    11    14    15    1
    12    15    16    1
    13    16    17    1
    14    17     1    1
    15     1     2   ar
    16     2     3    1
    17     2     4   ar
    18     4     5   ar
    19     5     6   ar
    20     6     7    2
    21     6     8   ar
    22     8    30    1
    23    30    31   ar
    24    30    32   ar
    25     8     9   ar
    26     9    10   ar
    27    10    33    1
    28    33    34    1
    29    34    35    1
    30    10    11   ar
    31    11    12   ar
    32    12    13    1
    33    17    18    1
    34    29    25   ar
    35    18    14    1
    36    12     1   ar
    37    11     5   ar
    38    35    33    1
    39    21    22    1
@<TRIPOS>MOLECULE
*****
 35 39 0 0 0
SMALL
GASTEIGER

@<TRIPOS>ATOM
      1 C         142.1141  142.2309  163.9276 C.ar    1  UNL1        0.0878
      2 C         143.2145  143.0164  164.5774 C.ar    1  UNL1        0.1543
      3 F         144.0483  143.9574  163.7593 F       1  UNL1       -0.2028
      4 C         143.4811  142.8608  166.0452 C.ar    1  UNL1        0.0356
      5 C         142.6474  141.9197  166.8633 C.ar    1  UNL1        0.0580
      6 C         142.9141  141.7641  168.3313 C.ar    1  UNL1        0.1996
      7 O         144.0144  142.5496  168.9810 O.2     1  UNL1       -0.2864
      8 C         142.0803  140.8231  169.1494 C.ar    1  UNL1        0.0701
      9 C         140.9799  140.0376  168.4995 C.ar    1  UNL1        0.0801
     10 N         140.7133  140.1932  167.0317 N.ar    1  UNL1       -0.3270
     11 C         141.5470  141.1343  166.2136 C.ar    1  UNL1        0.0750
     12 C         141.2804  141.2899  164.7457 C.ar    1  UNL1        0.0890
     13 CL        140.1800  140.5044  164.0959 Cl      1  UNL1       -0.0794
     14 C         141.9634  142.1130  160.0509 C.3     1  UNL1        0.0930
     15 C         140.9109  143.1388  160.3508 C.3     1  UNL1        0.0427
     16 C         140.8393  143.3079  161.8395 C.3     1  UNL1        0.0927
     17 N         141.8475  142.3865  162.4597 N.pl3   1  UNL1       -0.3033
     18 C         142.5422  141.6481  161.3542 C.3     1  UNL1        0.1104
     19 C         143.1157  142.5502  157.7637 C.2     1  UNL1        0.2475
     20 O         143.4621  143.9416  158.2042 O.2     1  UNL1       -0.2729
     21 N         142.3663  141.6359  158.6870 N.am    1  UNL1       -0.3026
     22 H         142.1390  140.7227  158.3979 H       1  UNL1        0.1495
     23 C         143.5186  142.0731  156.3999 C.3     1  UNL1        0.2149
     24 C         146.4639  141.1353  155.3531 C.3     1  UNL1        0.0754
     25 C         145.3294  140.2267  155.7240 C.ar    1  UNL1        0.1619
     26 N         145.3496  138.7275  155.6788 N.ar    1  UNL1       -0.1127
     27 N         144.0084  138.2320  156.1321 N.ar    1  UNL1       -0.0230
     28 N         143.1592  139.4249  156.4573 N.ar    1  UNL1       -0.0427
     29 N         143.9757  140.6577  156.2051 N.ar    1  UNL1       -0.2076
     30 C         142.3470  140.6675  170.6172 C.2     1  UNL1        0.0774
     31 O         143.4224  139.7344  171.0894 O.co2   1  UNL1       -0.5444
     32 O         141.5381  141.4449  171.6130 O.co2   1  UNL1       -0.5444
     33 C         139.6129  139.4078  166.3819 C.3     1  UNL1        0.0857
     34 C         139.1633  138.2336  165.5638 C.3     1  UNL1        0.0245
     35 C         138.1567  139.2214  166.0746 C.3     1  UNL1        0.0245
@<TRIPOS>UNITY_ATOM_ATTR
31 1
charge -1
@<TRIPOS>BOND
     1    24    25    1
     2    25    26   ar
     3    26    27   ar
     4    27    28   ar
     5    28    29   ar
     6    29    23    1
     7    23    19    1
     8    19    20    2
     9    19    21   am
    10    21    14    1
    11    14    15    1
    12    15    16    1
    13    16    17    1
    14    17     1    1
    15     1     2   ar
    16     2     3    1
    17     2     4   ar
    18     4     5   ar
    19     5     6   ar
    20     6     7    2
    21     6     8   ar
    22     8    30    1
    23    30    31   ar
    24    30    32   ar
    25     8     9   ar
    26     9    10   ar
    27    10    33    1
    28    33    34    1
    29    34    35    1
    30    10    11   ar
    31    11    12   ar
    32    12    13    1
    33    17    18    1
    34    29    25   ar
    35    18    14    1
    36    12     1   ar
    37    11     5   ar
    38    35    33    1
    39    21    22    1
@<TRIPOS>MOLECULE
*****
 35 39 0 0 0
SMALL
GASTEIGER

@<TRIPOS>ATOM
      1 C         140.6823  139.5994  164.2982 C.ar    1  UNL1        0.0878
      2 C         141.3567  138.6716  165.2648 C.ar    1  UNL1        0.1543
      3 F         141.7670  137.2979  164.8239 F       1  UNL1       -0.2028
      4 C         141.6206  139.1176  166.6724 C.ar    1  UNL1        0.0356
      5 C         141.2102  140.4914  167.1133 C.ar    1  UNL1        0.0580
      6 C         141.4742  140.9373  168.5210 C.ar    1  UNL1        0.1996
      7 O         142.1486  140.0096  169.4877 O.2     1  UNL1       -0.2864
      8 C         141.0638  142.3111  168.9620 C.ar    1  UNL1        0.0701
      9 C         140.3894  143.2388  167.9952 C.ar    1  UNL1        0.0801
     10 N         140.1255  142.7928  166.5876 N.ar    1  UNL1       -0.3270
     11 C         140.5359  141.4191  166.1467 C.ar    1  UNL1        0.0750
     12 C         140.2719  140.9731  164.7391 C.ar    1  UNL1        0.0890
     13 CL        139.5975  141.9009  163.7723 Cl      1  UNL1       -0.0794
     14 C         140.6377  138.8131  160.4974 C.3     1  UNL1        0.0930
     15 C         139.3865  138.1212  160.9513 C.3     1  UNL1        0.0427
     16 C         139.2510  138.3315  162.4302 C.3     1  UNL1        0.0927
     17 N         140.4183  139.1534  162.8905 N.pl3   1  UNL1       -0.3033
     18 C         141.2753  139.4510  161.6959 C.3     1  UNL1        0.1104
     19 C         142.3641  138.0497  158.7122 C.2     1  UNL1        0.2475
     20 O         143.0468  137.1945  159.7383 O.2     1  UNL1       -0.2729
     21 N         141.1595  138.8590  159.0919 N.am    1  UNL1       -0.3026
     22 H         140.7114  139.4203  158.4185 H       1  UNL1        0.1495
     23 C         142.8859  138.0957  157.3067 C.3     1  UNL1        0.2149
     24 C         140.1110  136.9985  155.9854 C.3     1  UNL1        0.0754
     25 C         141.4718  136.3927  155.8083 C.ar    1  UNL1        0.1619
     26 N         141.7960  135.1762  154.9928 N.ar    1  UNL1       -0.1127
     27 N         143.2717  134.9287  155.0962 N.ar    1  UNL1       -0.0230
     28 N         143.8597  135.9921  155.9755 N.ar    1  UNL1       -0.0427
     29 N         142.7473  136.8970  156.4157 N.ar    1  UNL1       -0.2076
     30 C         141.3278  142.7571  170.3695 C.2     1  UNL1        0.0774
     31 O         142.5839  143.5097  170.6948 O.co2   1  UNL1       -0.5444
     32 O         140.3356  142.4505  171.4520 O.co2   1  UNL1       -0.5444
     33 C         139.4511  143.7206  165.6210 C.3     1  UNL1        0.0857
     34 C         139.5368  144.7716  164.5542 C.3     1  UNL1        0.0245
     35 C         138.1974  144.2765  165.0133 C.3     1  UNL1        0.0245
@<TRIPOS>UNITY_ATOM_ATTR
31 1
charge -1
@<TRIPOS>BOND
     1    24    25    1
     2    25    26   ar
     3    26    27   ar
     4    27    28   ar
     5    28    29   ar
     6    29    23    1
     7    23    19    1
     8    19    20    2
     9    19    21   am
    10    21    14    1
    11    14    15    1
    12    15    16    1
    13    16    17    1
    14    17     1    1
    15     1     2   ar
    16     2     3    1
    17     2     4   ar
    18     4     5   ar
    19     5     6   ar
    20     6     7    2
    21     6     8   ar
    22     8    30    1
    23    30    31   ar
    24    30    32   ar
    25     8     9   ar
    26     9    10   ar
    27    10    33    1
    28    33    34    1
    29    34    35    1
    30    10    11   ar
    31    11    12   ar
    32    12    13    1
    33    17    18    1
    34    29    25   ar
    35    18    14    1
    36    12     1   ar
    37    11     5   ar
    38    35    33    1
    39    21    22    1
@<TRIPOS>MOLECULE
*****
 35 39 0 0 0
SMALL
GASTEIGER

@<TRIPOS>ATOM
      1 C         142.8885  140.2376  164.4168 C.ar    1  UNL1        0.0878
      2 C         143.9640  141.0746  165.0435 C.ar    1  UNL1        0.1543
      3 F         145.2678  141.2776  164.3301 F       1  UNL1       -0.2028
      4 C         143.7357  141.7086  166.3836 C.ar    1  UNL1        0.0356
      5 C         142.4319  141.5056  167.0970 C.ar    1  UNL1        0.0580
      6 C         142.2037  142.1396  168.4371 C.ar    1  UNL1        0.1996
      7 O         143.2791  142.9766  169.0638 O.2     1  UNL1       -0.2864
      8 C         140.8999  141.9366  169.1505 C.ar    1  UNL1        0.0701
      9 C         139.8244  141.0996  168.5238 C.ar    1  UNL1        0.0801
     10 N         140.0527  140.4656  167.1837 N.ar    1  UNL1       -0.3270
     11 C         141.3565  140.6686  166.4703 C.ar    1  UNL1        0.0750
     12 C         141.5848  140.0346  165.1302 C.ar    1  UNL1        0.0890
     13 CL        140.5092  139.1976  164.5034 Cl      1  UNL1       -0.0794
     14 C         143.6380  139.2991  160.7258 C.3     1  UNL1        0.0930
     15 C         143.2982  137.9569  161.3029 C.3     1  UNL1        0.0427
     16 C         142.9762  138.1451  162.7558 C.3     1  UNL1        0.0927
     17 N         143.1168  139.6036  163.0766 N.pl3   1  UNL1       -0.3033
     18 C         143.5258  140.3168  161.8220 C.3     1  UNL1        0.1104
     19 C         142.9653  139.6463  158.2404 C.2     1  UNL1        0.2475
     20 O         141.5239  139.4415  158.6019 O.2     1  UNL1       -0.2729
     21 N         144.0223  139.5752  159.3024 N.am    1  UNL1       -0.3026
     22 H         144.9683  139.7096  159.0652 H       1  UNL1        0.1495
     23 C         143.3496  139.9224  156.8170 C.3     1  UNL1        0.2149
     24 C         145.1740  139.5448  154.1377 C.3     1  UNL1        0.0754
     25 C         145.4669  140.4713  155.2805 C.ar    1  UNL1        0.1619
     26 N         146.6498  141.3869  155.3924 N.ar    1  UNL1       -0.1127
     27 N         146.5422  142.1263  156.6929 N.ar    1  UNL1       -0.0230
     28 N         145.2929  141.6677  157.3850 N.ar    1  UNL1       -0.0427
     29 N         144.6283  140.6449  156.5120 N.ar    1  UNL1       -0.2076
     30 C         140.6716  142.5706  170.4906 C.2     1  UNL1        0.0774
     31 O         139.7740  143.7664  170.6115 O.co2   1  UNL1       -0.5444
     32 O         141.3408  142.0088  171.7099 O.co2   1  UNL1       -0.5444
     33 C         138.9772  139.6287  166.5570 C.3     1  UNL1        0.0857
     34 C         137.9102  139.4496  165.5180 C.3     1  UNL1        0.0245
     35 C         138.1813  138.3581  166.5105 C.3     1  UNL1        0.0245
@<TRIPOS>UNITY_ATOM_ATTR
31 1
charge -1
@<TRIPOS>BOND
     1    24    25    1
     2    25    26   ar
     3    26    27   ar
     4    27    28   ar
     5    28    29   ar
     6    29    23    1
     7    23    19    1
     8    19    20    2
     9    19    21   am
    10    21    14    1
    11    14    15    1
    12    15    16    1
    13    16    17    1
    14    17     1    1
    15     1     2   ar
    16     2     3    1
    17     2     4   ar
    18     4     5   ar
    19     5     6   ar
    20     6     7    2
    21     6     8   ar
    22     8    30    1
    23    30    31   ar
    24    30    32   ar
    25     8     9   ar
    26     9    10   ar
    27    10    33    1
    28    33    34    1
    29    34    35    1
    30    10    11   ar
    31    11    12   ar
    32    12    13    1
    33    17    18    1
    34    29    25   ar
    35    18    14    1
    36    12     1   ar
    37    11     5   ar
    38    35    33    1
    39    21    22    1
