@<TRIPOS>MOLECULE
*****
 36 39 0 0 0
SMALL
GASTEIGER

@<TRIPOS>ATOM
      1 C         143.6984  140.3033  162.4560 C.ar    1  UNL1        0.1233
      2 C         142.5788  140.7595  163.3441 C.ar    1  UNL1        0.1180
      3 N         142.6958  140.0296  164.6493 N.ar    1  UNL1       -0.2233
      4 N         143.8875  139.1223  164.5679 N.ar    1  UNL1       -0.0634
      5 N         144.5072  139.2915  163.2123 N.ar    1  UNL1       -0.1287
      6 C         141.7815  140.1803  165.8289 C.3     1  UNL1        0.1827
      7 C         142.3527  140.9156  167.0051 C.3     1  UNL1        0.0339
      8 C         141.7003  141.2280  168.3193 C.3     1  UNL1        0.0041
      9 C         140.3160  140.8824  168.7817 C.3     1  UNL1        0.0216
     10 C         139.2419  140.1390  168.0444 C.3     1  UNL1        0.0937
     11 N         139.2869  139.5576  166.6624 N.am    1  UNL1       -0.2703
     12 C         140.4173  139.5760  165.6764 C.2     1  UNL1        0.2483
     13 O         140.1475  138.9007  164.3645 O.2     1  UNL1       -0.2728
     14 C         142.5441  141.9864  169.3006 C.3     1  UNL1        0.0001
     15 C         143.4842  142.3693  168.1961 C.3     1  UNL1        0.0000
     16 C         141.6041  141.6035  170.4049 C.3     1  UNL1        0.0000
     17 C         143.3879  142.7447  170.2818 C.3     1  UNL1        0.0000
     18 C         138.0364  138.8664  166.2060 C.3     1  UNL1        0.1974
     19 C         137.6653  137.5312  166.7802 C.3     1  UNL1        0.4157
     20 F         137.2942  136.1960  167.3542 F       1  UNL1       -0.1682
     21 F         138.5054  136.8506  165.7404 F       1  UNL1       -0.1682
     22 F         136.8252  138.2118  167.8199 F       1  UNL1       -0.1682
     23 C         144.0585  140.3065  158.5037 C.ar    1  UNL1        0.1547
     24 C         143.7942  139.8336  159.9026 C.ar    1  UNL1        0.0400
     25 C         143.9626  140.7761  161.0572 C.ar    1  UNL1        0.0241
     26 C         144.3952  142.1916  160.8131 C.ar    1  UNL1        0.0033
     27 C         144.6594  142.6643  159.4143 C.ar    1  UNL1        0.0207
     28 C         144.4910  141.7218  158.2596 C.ar    1  UNL1        0.0994
     29 N         144.7553  142.1947  156.8609 N.ar    1  UNL1       -0.2839
     30 C         143.7341  142.7384  155.9062 C.ar    1  UNL1        0.1826
     31 N         144.4349  143.0866  154.6265 N.ar    1  UNL1       -0.2280
     32 C         145.8892  142.7580  154.7903 C.ar    1  UNL1        0.0786
     33 C         146.9579  142.9474  153.7548 C.3     1  UNL1        0.0538
     34 C         146.0873  142.2068  156.1711 C.ar    1  UNL1        0.0963
     35 C         142.8314  138.3023  157.3957 C.3     1  UNL1        0.2525
     36 O         143.8901  139.3639  157.3490 O.3     1  UNL1       -0.4700
@<TRIPOS>BOND
     1    35    36    1
     2    36    23    1
     3    23    24   ar
     4    24    25   ar
     5    25     1    1
     6     1     2   ar
     7     2     3   ar
     8     6     3    1
     9     6     7    1
    10     7     8    1
    11     8    14    1
    12    14    15    1
    13    14    16    1
    14    14    17    1
    15     8     9    1
    16     9    10    1
    17    10    11    1
    18    11    18    1
    19    18    19    1
    20    19    20    1
    21    19    21    1
    22    19    22    1
    23    11    12   am
    24    12    13    2
    25     3     4   ar
    26     4     5   ar
    27    25    26   ar
    28    26    27   ar
    29    27    28   ar
    30    28    29    1
    31    29    30   ar
    32    30    31   ar
    33    31    32   ar
    34    32    33    1
    35    32    34   ar
    36    28    23   ar
    37    34    29   ar
    38     5     1   ar
    39    12     6    1
@<TRIPOS>MOLECULE
*****
 36 39 0 0 0
SMALL
GASTEIGER

@<TRIPOS>ATOM
      1 C         139.8665  138.6520  160.4967 C.ar    1  UNL1        0.1233
      2 C         141.1991  138.3661  159.8702 C.ar    1  UNL1        0.1180
      3 N         141.0086  138.3046  158.3836 N.ar    1  UNL1       -0.2233
      4 N         139.5584  138.5525  158.0914 N.ar    1  UNL1       -0.0634
      5 N         138.8525  138.7673  159.3975 N.ar    1  UNL1       -0.1287
      6 C         142.0801  138.0414  157.3674 C.3     1  UNL1        0.1827
      7 C         142.2982  136.6010  157.0099 C.3     1  UNL1        0.0339
      8 C         143.2819  136.0168  156.0397 C.3     1  UNL1        0.0041
      9 C         144.2904  136.7287  155.1877 C.3     1  UNL1        0.0216
     10 C         144.5644  138.2006  155.0952 C.3     1  UNL1        0.0937
     11 N         143.8975  139.3241  155.8320 N.am    1  UNL1       -0.2703
     12 C         142.7918  139.2532  156.8432 C.2     1  UNL1        0.2483
     13 O         142.3379  140.5681  157.4045 O.2     1  UNL1       -0.2728
     14 C         143.2532  134.5233  155.9038 C.3     1  UNL1        0.0001
     15 C         143.6280  134.3846  157.3496 C.3     1  UNL1        0.0000
     16 C         142.8785  134.6620  154.4581 C.3     1  UNL1        0.0000
     17 C         143.2245  133.0298  155.7680 C.3     1  UNL1        0.0000
     18 C         144.4030  140.7004  155.5158 C.3     1  UNL1        0.1974
     19 C         145.8441  141.0429  155.7524 C.3     1  UNL1        0.4157
     20 F         147.2852  141.3853  155.9890 F       1  UNL1       -0.1682
     21 F         145.6188  140.9679  157.2335 F       1  UNL1       -0.1682
     22 F         146.0694  141.1178  154.2713 F       1  UNL1       -0.1682
     23 C         138.5977  140.1499  163.9459 C.ar    1  UNL1        0.1547
     24 C         138.8685  140.0048  162.4777 C.ar    1  UNL1        0.0400
     25 C         139.5957  138.7972  161.9650 C.ar    1  UNL1        0.0241
     26 C         140.0520  137.7347  162.9205 C.ar    1  UNL1        0.0033
     27 C         139.7812  137.8799  164.3886 C.ar    1  UNL1        0.0207
     28 C         139.0541  139.0875  164.9014 C.ar    1  UNL1        0.0994
     29 N         138.7833  139.2326  166.3695 N.ar    1  UNL1       -0.2839
     30 C         137.6721  138.5724  167.1307 C.ar    1  UNL1        0.1826
     31 N         137.7783  138.9952  168.5660 N.ar    1  UNL1       -0.2280
     32 C         138.9551  139.9167  168.6918 C.ar    1  UNL1        0.0786
     33 C         139.4278  140.5757  169.9537 C.3     1  UNL1        0.0538
     34 C         139.5763  140.0635  167.3345 C.ar    1  UNL1        0.0963
     35 C         138.5759  142.6789  164.5410 C.3     1  UNL1        0.2525
     36 O         137.8706  141.3576  164.4587 O.3     1  UNL1       -0.4700
@<TRIPOS>BOND
     1    35    36    1
     2    36    23    1
     3    23    24   ar
     4    24    25   ar
     5    25     1    1
     6     1     2   ar
     7     2     3   ar
     8     6     3    1
     9     6     7    1
    10     7     8    1
    11     8    14    1
    12    14    15    1
    13    14    16    1
    14    14    17    1
    15     8     9    1
    16     9    10    1
    17    10    11    1
    18    11    18    1
    19    18    19    1
    20    19    20    1
    21    19    21    1
    22    19    22    1
    23    11    12   am
    24    12    13    2
    25     3     4   ar
    26     4     5   ar
    27    25    26   ar
    28    26    27   ar
    29    27    28   ar
    30    28    29    1
    31    29    30   ar
    32    30    31   ar
    33    31    32   ar
    34    32    33    1
    35    32    34   ar
    36    28    23   ar
    37    34    29   ar
    38     5     1   ar
    39    12     6    1
@<TRIPOS>MOLECULE
*****
 36 39 0 0 0
SMALL
GASTEIGER

@<TRIPOS>ATOM
      1 C         143.6351  141.6487  159.1868 C.ar    1  UNL1        0.1233
      2 C         143.7336  141.9240  160.6581 C.ar    1  UNL1        0.1180
      3 N         142.3927  141.6492  161.2718 N.ar    1  UNL1       -0.2233
      4 N         141.4656  141.2041  160.1798 N.ar    1  UNL1       -0.0634
      5 N         142.2335  141.2038  158.8912 N.ar    1  UNL1       -0.1287
      6 C         142.0406  141.7940  162.7227 C.3     1  UNL1        0.1827
      7 C         142.5802  140.7304  163.6325 C.3     1  UNL1        0.0339
      8 C         142.4079  140.5934  165.1163 C.3     1  UNL1        0.0041
      9 C         141.6537  141.4860  166.0566 C.3     1  UNL1        0.0216
     10 C         140.8854  142.7362  165.7455 C.3     1  UNL1        0.0937
     11 N         140.6816  143.4025  164.4172 N.am    1  UNL1       -0.2703
     12 C         141.1958  142.9831  163.0719 C.2     1  UNL1        0.2483
     13 O         140.8146  143.8703  161.9240 O.2     1  UNL1       -0.2728
     14 C         143.0786  139.4067  165.7425 C.3     1  UNL1        0.0001
     15 C         144.0670  139.3705  164.6147 C.3     1  UNL1        0.0000
     16 C         142.0903  139.4430  166.8702 C.3     1  UNL1        0.0000
     17 C         143.7494  138.2201  166.3685 C.3     1  UNL1        0.0000
     18 C         139.8543  144.6535  164.4367 C.3     1  UNL1        0.1974
     19 C         138.4168  144.5955  164.8616 C.3     1  UNL1        0.4157
     20 F         136.9794  144.5375  165.2865 F       1  UNL1       -0.1682
     21 F         138.0720  143.8681  163.5959 F       1  UNL1       -0.1682
     22 F         138.7617  145.3229  166.1273 F       1  UNL1       -0.1682
     23 C         145.8598  141.0920  155.9478 C.ar    1  UNL1        0.1547
     24 C         144.7511  140.9476  156.9478 C.ar    1  UNL1        0.0400
     25 C         144.7438  141.7931  158.1868 C.ar    1  UNL1        0.0241
     26 C         145.8452  142.7829  158.4258 C.ar    1  UNL1        0.0033
     27 C         146.9539  142.9273  157.4259 C.ar    1  UNL1        0.0207
     28 C         146.9612  142.0818  156.1869 C.ar    1  UNL1        0.0994
     29 N         148.0699  142.2262  155.1869 N.ar    1  UNL1       -0.2839
     30 C         148.0192  143.0353  153.9249 C.ar    1  UNL1        0.1826
     31 N         149.3420  142.8960  153.2315 N.ar    1  UNL1       -0.2280
     32 C         150.2102  142.0008  154.0650 C.ar    1  UNL1        0.0786
     33 C         151.6176  141.5914  153.7460 C.3     1  UNL1        0.0538
     34 C         149.4241  141.5868  155.2736 C.ar    1  UNL1        0.0963
     35 C         145.0781  140.6718  153.5060 C.3     1  UNL1        0.2525
     36 O         145.8672  140.2465  154.7088 O.3     1  UNL1       -0.4700
@<TRIPOS>BOND
     1    35    36    1
     2    36    23    1
     3    23    24   ar
     4    24    25   ar
     5    25     1    1
     6     1     2   ar
     7     2     3   ar
     8     6     3    1
     9     6     7    1
    10     7     8    1
    11     8    14    1
    12    14    15    1
    13    14    16    1
    14    14    17    1
    15     8     9    1
    16     9    10    1
    17    10    11    1
    18    11    18    1
    19    18    19    1
    20    19    20    1
    21    19    21    1
    22    19    22    1
    23    11    12   am
    24    12    13    2
    25     3     4   ar
    26     4     5   ar
    27    25    26   ar
    28    26    27   ar
    29    27    28   ar
    30    28    29    1
    31    29    30   ar
    32    30    31   ar
    33    31    32   ar
    34    32    33    1
    35    32    34   ar
    36    28    23   ar
    37    34    29   ar
    38     5     1   ar
    39    12     6    1
@<TRIPOS>MOLECULE
*****
 36 39 0 0 0
SMALL
GASTEIGER

@<TRIPOS>ATOM
      1 C         143.1761  138.7236  159.9439 C.ar    1  UNL1        0.1233
      2 C         142.4793  137.6427  159.1718 C.ar    1  UNL1        0.1180
      3 N         142.8178  137.8177  157.7210 N.ar    1  UNL1       -0.2233
      4 N         143.7238  139.0066  157.5965 N.ar    1  UNL1       -0.0634
      5 N         143.9452  139.5665  158.9704 N.ar    1  UNL1       -0.1287
      6 C         142.3351  136.9552  156.5927 C.3     1  UNL1        0.1827
      7 C         142.9559  135.5925  156.5036 C.3     1  UNL1        0.0339
      8 C         142.6904  134.5074  155.5025 C.3     1  UNL1        0.0041
      9 C         141.7386  134.5171  154.3433 C.3     1  UNL1        0.0216
     10 C         140.8172  135.6140  153.8987 C.3     1  UNL1        0.0937
     11 N         140.6201  136.9724  154.5037 N.am    1  UNL1       -0.2703
     12 C         141.2957  137.5692  155.7026 C.2     1  UNL1        0.2483
     13 O         140.8762  138.9647  156.0586 O.2     1  UNL1       -0.2728
     14 C         143.4813  133.2460  155.6849 C.3     1  UNL1        0.0001
     15 C         142.9919  132.7474  154.3575 C.3     1  UNL1        0.0000
     16 C         143.9707  133.7447  157.0121 C.3     1  UNL1        0.0000
     17 C         144.2722  131.9846  155.8672 C.3     1  UNL1        0.0000
     18 C         139.6144  137.8499  153.8193 C.3     1  UNL1        0.1974
     19 C         138.1480  137.5808  153.9851 C.3     1  UNL1        0.4157
     20 F         136.6817  137.3117  154.1509 F       1  UNL1       -0.1682
     21 F         138.1311  138.4332  155.2192 F       1  UNL1       -0.1682
     22 F         138.1650  136.7284  152.7510 F       1  UNL1       -0.1682
     23 C         144.1355  139.8966  163.6119 C.ar    1  UNL1        0.1547
     24 C         144.1972  139.6944  162.1268 C.ar    1  UNL1        0.0400
     25 C         143.1144  138.9259  161.4290 C.ar    1  UNL1        0.0241
     26 C         141.9699  138.3596  162.2162 C.ar    1  UNL1        0.0033
     27 C         141.9083  138.5619  163.7011 C.ar    1  UNL1        0.0207
     28 C         142.9911  139.3304  164.3990 C.ar    1  UNL1        0.0994
     29 N         142.9293  139.5326  165.8840 N.ar    1  UNL1       -0.2839
     30 C         143.2752  138.5126  166.9279 C.ar    1  UNL1        0.1826
     31 N         143.0705  139.1400  168.2750 N.ar    1  UNL1       -0.2280
     32 C         142.5981  140.5479  168.0635 C.ar    1  UNL1        0.0786
     33 C         142.2704  141.5391  169.1407 C.3     1  UNL1        0.0538
     34 C         142.5108  140.7906  166.5859 C.ar    1  UNL1        0.0963
     35 C         145.8661  141.8344  163.6291 C.3     1  UNL1        0.2525
     36 O         145.2182  140.6651  164.3098 O.3     1  UNL1       -0.4700
@<TRIPOS>BOND
     1    35    36    1
     2    36    23    1
     3    23    24   ar
     4    24    25   ar
     5    25     1    1
     6     1     2   ar
     7     2     3   ar
     8     6     3    1
     9     6     7    1
    10     7     8    1
    11     8    14    1
    12    14    15    1
    13    14    16    1
    14    14    17    1
    15     8     9    1
    16     9    10    1
    17    10    11    1
    18    11    18    1
    19    18    19    1
    20    19    20    1
    21    19    21    1
    22    19    22    1
    23    11    12   am
    24    12    13    2
    25     3     4   ar
    26     4     5   ar
    27    25    26   ar
    28    26    27   ar
    29    27    28   ar
    30    28    29    1
    31    29    30   ar
    32    30    31   ar
    33    31    32   ar
    34    32    33    1
    35    32    34   ar
    36    28    23   ar
    37    34    29   ar
    38     5     1   ar
    39    12     6    1
@<TRIPOS>MOLECULE
*****
 36 39 0 0 0
SMALL
GASTEIGER

@<TRIPOS>ATOM
      1 C         143.1942  138.9902  160.0942 C.ar    1  UNL1        0.1233
      2 C         142.4871  137.8841  159.3685 C.ar    1  UNL1        0.1180
      3 N         142.8711  137.9601  157.9205 N.ar    1  UNL1       -0.2233
      4 N         143.8155  139.1131  157.7512 N.ar    1  UNL1       -0.0634
      5 N         144.0152  139.7498  159.0948 N.ar    1  UNL1       -0.1287
      6 C         142.3945  137.0440  156.8326 C.3     1  UNL1        0.1827
      7 C         142.9732  135.6601  156.8472 C.3     1  UNL1        0.0339
      8 C         142.7024  134.5233  155.9067 C.3     1  UNL1        0.0041
      9 C         141.7863  134.4896  154.7195 C.3     1  UNL1        0.0216
     10 C         140.9146  135.5842  154.1795 C.3     1  UNL1        0.0937
     11 N         140.7437  136.9831  154.6933 N.am    1  UNL1       -0.2703
     12 C         141.4023  137.6327  155.8741 C.2     1  UNL1        0.2483
     13 O         141.0179  139.0598  156.1301 O.2     1  UNL1       -0.2728
     14 C         143.4463  133.2521  156.1912 C.3     1  UNL1        0.0001
     15 C         143.7835  133.7567  157.5630 C.3     1  UNL1        0.0000
     16 C         143.1091  132.7477  154.8195 C.3     1  UNL1        0.0000
     17 C         144.1902  131.9811  156.4757 C.3     1  UNL1        0.0000
     18 C         139.7877  137.8465  153.9247 C.3     1  UNL1        0.1974
     19 C         138.3808  137.3824  153.6895 C.3     1  UNL1        0.4157
     20 F         136.9740  136.9183  153.4542 F       1  UNL1       -0.1682
     21 F         138.5749  137.5436  152.2108 F       1  UNL1       -0.1682
     22 F         138.1868  137.2212  155.1681 F       1  UNL1       -0.1682
     23 C         141.6603  139.6024  163.7029 C.ar    1  UNL1        0.1547
     24 C         141.7572  139.3077  162.2353 C.ar    1  UNL1        0.0400
     25 C         143.0973  139.2848  161.5618 C.ar    1  UNL1        0.0241
     26 C         144.3405  139.5567  162.3559 C.ar    1  UNL1        0.0033
     27 C         144.2436  139.8513  163.8234 C.ar    1  UNL1        0.0207
     28 C         142.9035  139.8742  164.4970 C.ar    1  UNL1        0.0994
     29 N         142.8067  140.1688  165.9645 N.ar    1  UNL1       -0.2839
     30 C         142.8433  141.5294  166.5950 C.ar    1  UNL1        0.1826
     31 N         142.7154  141.3560  168.0795 N.ar    1  UNL1       -0.2280
     32 C         142.5999  139.8883  168.3664 C.ar    1  UNL1        0.0786
     33 C         142.4536  139.2639  169.7225 C.3     1  UNL1        0.0538
     34 C         142.6562  139.1545  167.0594 C.ar    1  UNL1        0.0963
     35 C         139.1768  138.8453  163.7982 C.3     1  UNL1        0.2525
     36 O         140.3202  139.6252  164.3765 O.3     1  UNL1       -0.4700
@<TRIPOS>BOND
     1    35    36    1
     2    36    23    1
     3    23    24   ar
     4    24    25   ar
     5    25     1    1
     6     1     2   ar
     7     2     3   ar
     8     6     3    1
     9     6     7    1
    10     7     8    1
    11     8    14    1
    12    14    15    1
    13    14    16    1
    14    14    17    1
    15     8     9    1
    16     9    10    1
    17    10    11    1
    18    11    18    1
    19    18    19    1
    20    19    20    1
    21    19    21    1
    22    19    22    1
    23    11    12   am
    24    12    13    2
    25     3     4   ar
    26     4     5   ar
    27    25    26   ar
    28    26    27   ar
    29    27    28   ar
    30    28    29    1
    31    29    30   ar
    32    30    31   ar
    33    31    32   ar
    34    32    33    1
    35    32    34   ar
    36    28    23   ar
    37    34    29   ar
    38     5     1   ar
    39    12     6    1
@<TRIPOS>MOLECULE
*****
 36 39 0 0 0
SMALL
GASTEIGER

@<TRIPOS>ATOM
      1 C         142.6490  138.0970  158.2603 C.ar    1  UNL1        0.1233
      2 C         141.8969  138.3924  159.5242 C.ar    1  UNL1        0.1180
      3 N         142.4899  139.6255  160.1389 N.ar    1  UNL1       -0.2233
      4 N         143.6084  140.0922  159.2550 N.ar    1  UNL1       -0.0634
      5 N         143.7066  139.1475  158.0940 N.ar    1  UNL1       -0.1287
      6 C         142.0430  140.2775  161.4137 C.3     1  UNL1        0.1827
      7 C         142.5432  139.6447  162.6784 C.3     1  UNL1        0.0339
      8 C         142.2789  140.0542  164.0971 C.3     1  UNL1        0.0041
      9 C         141.4493  141.1975  164.6013 C.3     1  UNL1        0.0216
     10 C         140.6789  142.2138  163.8116 C.3     1  UNL1        0.0937
     11 N         140.5480  142.3378  162.3225 N.am    1  UNL1       -0.2703
     12 C         141.1552  141.4760  161.2554 C.2     1  UNL1        0.2483
     13 O         140.8315  141.8641  159.8430 O.2     1  UNL1       -0.2728
     14 C         142.9305  139.2084  165.1507 C.3     1  UNL1        0.0001
     15 C         144.2473  139.3443  164.4453 C.3     1  UNL1        0.0000
     16 C         141.6137  139.0725  165.8561 C.3     1  UNL1        0.0000
     17 C         143.5821  138.3626  166.2042 C.3     1  UNL1        0.0000
     18 C         139.6976  143.4736  161.8362 C.3     1  UNL1        0.1974
     19 C         138.4929  143.8987  162.6224 C.3     1  UNL1        0.4157
     20 F         137.2882  144.3237  163.4086 F       1  UNL1       -0.1682
     21 F         137.7530  142.6843  162.1452 F       1  UNL1       -0.1682
     22 F         139.2329  145.1131  163.0996 F       1  UNL1       -0.1682
     23 C         143.0701  134.6400  156.3571 C.ar    1  UNL1        0.1547
     24 C         143.3304  135.7850  157.2907 C.ar    1  UNL1        0.0400
     25 C         142.3888  136.9520  157.3268 C.ar    1  UNL1        0.0241
     26 C         141.1870  136.9742  156.4294 C.ar    1  UNL1        0.0033
     27 C         140.9268  135.8293  155.4960 C.ar    1  UNL1        0.0207
     28 C         141.8684  134.6622  155.4598 C.ar    1  UNL1        0.0994
     29 N         141.6082  133.5173  154.5262 N.ar    1  UNL1       -0.2839
     30 C         141.8813  133.5026  153.0514 C.ar    1  UNL1        0.1826
     31 N         141.4710  132.1623  152.5174 N.ar    1  UNL1       -0.2280
     32 C         140.9443  131.3487  153.6621 C.ar    1  UNL1        0.0786
     33 C         140.4241  129.9441  153.5798 C.3     1  UNL1        0.0538
     34 C         141.0290  132.1860  154.9037 C.ar    1  UNL1        0.0963
     35 C         144.4317  132.8081  157.5983 C.3     1  UNL1        0.2525
     36 O         144.0117  133.4729  156.3209 O.3     1  UNL1       -0.4700
@<TRIPOS>BOND
     1    35    36    1
     2    36    23    1
     3    23    24   ar
     4    24    25   ar
     5    25     1    1
     6     1     2   ar
     7     2     3   ar
     8     6     3    1
     9     6     7    1
    10     7     8    1
    11     8    14    1
    12    14    15    1
    13    14    16    1
    14    14    17    1
    15     8     9    1
    16     9    10    1
    17    10    11    1
    18    11    18    1
    19    18    19    1
    20    19    20    1
    21    19    21    1
    22    19    22    1
    23    11    12   am
    24    12    13    2
    25     3     4   ar
    26     4     5   ar
    27    25    26   ar
    28    26    27   ar
    29    27    28   ar
    30    28    29    1
    31    29    30   ar
    32    30    31   ar
    33    31    32   ar
    34    32    33    1
    35    32    34   ar
    36    28    23   ar
    37    34    29   ar
    38     5     1   ar
    39    12     6    1
@<TRIPOS>MOLECULE
*****
 36 39 0 0 0
SMALL
GASTEIGER

@<TRIPOS>ATOM
      1 C         141.0852  138.9637  158.8635 C.ar    1  UNL1        0.1233
      2 C         141.4805  138.7933  160.3004 C.ar    1  UNL1        0.1180
      3 N         141.1852  140.0772  161.0177 N.ar    1  UNL1       -0.2233
      4 N         140.6075  141.0410  160.0241 N.ar    1  UNL1       -0.0634
      5 N         140.5457  140.3528  158.6927 N.ar    1  UNL1       -0.1287
      6 C         141.4255  140.3496  162.4731 C.3     1  UNL1        0.1827
      7 C         140.4393  139.7350  163.4216 C.3     1  UNL1        0.0339
      8 C         140.4042  139.8196  164.9189 C.3     1  UNL1        0.0041
      9 C         141.3465  140.5395  165.8372 C.3     1  UNL1        0.0216
     10 C         142.5568  141.3528  165.4853 C.3     1  UNL1        0.0937
     11 N         143.1236  141.6470  164.1280 N.am    1  UNL1       -0.2703
     12 C         142.6200  141.2005  162.7875 C.2     1  UNL1        0.2483
     13 O         143.4165  141.6665  161.6049 O.2     1  UNL1       -0.2728
     14 C         139.2777  139.0872  165.5858 C.3     1  UNL1        0.0001
     15 C         139.2189  138.1287  164.4335 C.3     1  UNL1        0.0000
     16 C         139.3366  140.0458  166.7380 C.3     1  UNL1        0.0000
     17 C         138.1513  138.3549  166.2526 C.3     1  UNL1        0.0000
     18 C         144.3569  142.5005  164.1088 C.3     1  UNL1        0.1974
     19 C         144.2737  143.9475  164.4952 C.3     1  UNL1        0.4157
     20 F         144.1906  145.3945  164.8816 F       1  UNL1       -0.1682
     21 F         144.8237  143.6171  165.8510 F       1  UNL1       -0.1682
     22 F         143.7238  144.2779  163.1393 F       1  UNL1       -0.1682
     23 C         142.5436  136.0095  156.6509 C.ar    1  UNL1        0.1547
     24 C         142.4209  137.0463  157.7279 C.ar    1  UNL1        0.0400
     25 C         141.2080  137.9268  157.7865 C.ar    1  UNL1        0.0241
     26 C         140.1178  137.7705  156.7681 C.ar    1  UNL1        0.0033
     27 C         140.2405  136.7337  155.6912 C.ar    1  UNL1        0.0207
     28 C         141.4535  135.8531  155.6325 C.ar    1  UNL1        0.0994
     29 N         141.5762  134.8163  154.5555 N.ar    1  UNL1       -0.2839
     30 C         141.9072  135.0755  153.1157 C.ar    1  UNL1        0.1826
     31 N         141.9249  133.7576  152.3996 N.ar    1  UNL1       -0.2280
     32 C         141.6049  132.6839  153.3969 C.ar    1  UNL1        0.0786
     33 C         141.5160  131.2139  153.1118 C.3     1  UNL1        0.0538
     34 C         141.3893  133.3381  154.7294 C.ar    1  UNL1        0.0963
     35 C         143.8648  133.9399  157.5003 C.3     1  UNL1        0.2525
     36 O         143.7566  135.1289  156.5922 O.3     1  UNL1       -0.4700
@<TRIPOS>BOND
     1    35    36    1
     2    36    23    1
     3    23    24   ar
     4    24    25   ar
     5    25     1    1
     6     1     2   ar
     7     2     3   ar
     8     6     3    1
     9     6     7    1
    10     7     8    1
    11     8    14    1
    12    14    15    1
    13    14    16    1
    14    14    17    1
    15     8     9    1
    16     9    10    1
    17    10    11    1
    18    11    18    1
    19    18    19    1
    20    19    20    1
    21    19    21    1
    22    19    22    1
    23    11    12   am
    24    12    13    2
    25     3     4   ar
    26     4     5   ar
    27    25    26   ar
    28    26    27   ar
    29    27    28   ar
    30    28    29    1
    31    29    30   ar
    32    30    31   ar
    33    31    32   ar
    34    32    33    1
    35    32    34   ar
    36    28    23   ar
    37    34    29   ar
    38     5     1   ar
    39    12     6    1
@<TRIPOS>MOLECULE
*****
 36 39 0 0 0
SMALL
GASTEIGER

@<TRIPOS>ATOM
      1 C         139.4951  143.1565  159.9003 C.ar    1  UNL1        0.1233
      2 C         140.5191  142.3903  160.6841 C.ar    1  UNL1        0.1180
      3 N         139.8222  141.7314  161.8374 N.ar    1  UNL1       -0.2233
      4 N         138.3675  142.0903  161.7664 N.ar    1  UNL1       -0.0634
      5 N         138.1654  142.9711  160.5691 N.ar    1  UNL1       -0.1287
      6 C         140.4667  140.8655  162.8790 C.3     1  UNL1        0.1827
      7 C         141.9318  141.0974  163.1024 C.3     1  UNL1        0.0339
      8 C         142.8529  140.4032  164.0615 C.3     1  UNL1        0.0041
      9 C         142.5365  139.3059  165.0338 C.3     1  UNL1        0.0216
     10 C         141.2209  138.6316  165.2875 C.3     1  UNL1        0.0937
     11 N         139.8967  138.8881  164.6313 N.am    1  UNL1       -0.2703
     12 C         139.5611  139.8823  163.5594 C.2     1  UNL1        0.2483
     13 O         138.1305  139.8949  163.1083 O.2     1  UNL1       -0.2728
     14 C         144.2790  140.8680  164.0459 C.3     1  UNL1        0.0001
     15 C         143.8197  142.2673  163.7609 C.3     1  UNL1        0.0000
     16 C         144.7383  139.4688  164.3309 C.3     1  UNL1        0.0000
     17 C         145.7050  141.3329  164.0303 C.3     1  UNL1        0.0000
     18 C         138.7574  138.0380  165.1103 C.3     1  UNL1        0.1974
     19 C         138.0755  138.3593  166.4072 C.3     1  UNL1        0.4157
     20 F         137.3935  138.6807  167.7040 F       1  UNL1       -0.1682
     21 F         138.3758  139.8150  166.2045 F       1  UNL1       -0.1682
     22 F         137.7751  136.9038  166.6098 F       1  UNL1       -0.1682
     23 C         139.3439  144.4110  156.1382 C.ar    1  UNL1        0.1547
     24 C         139.0836  143.6014  157.3739 C.ar    1  UNL1        0.0400
     25 C         139.7553  143.9660  158.6645 C.ar    1  UNL1        0.0241
     26 C         140.6873  145.1401  158.7195 C.ar    1  UNL1        0.0033
     27 C         140.9476  145.9495  157.4839 C.ar    1  UNL1        0.0207
     28 C         140.2759  145.5850  156.1931 C.ar    1  UNL1        0.0994
     29 N         140.5362  146.3945  154.9575 N.ar    1  UNL1       -0.2839
     30 C         141.4180  145.9956  153.8115 C.ar    1  UNL1        0.1826
     31 N         141.3871  147.0997  152.7966 N.ar    1  UNL1       -0.2280
     32 C         140.4862  148.1810  153.3153 C.ar    1  UNL1        0.0786
     33 C         140.1672  149.4716  152.6205 C.3     1  UNL1        0.0538
     34 C         139.9602  147.7453  154.6508 C.ar    1  UNL1        0.0963
     35 C         137.1946  144.2497  154.6873 C.3     1  UNL1        0.2525
     36 O         138.6722  144.0464  154.8474 O.3     1  UNL1       -0.4700
@<TRIPOS>BOND
     1    35    36    1
     2    36    23    1
     3    23    24   ar
     4    24    25   ar
     5    25     1    1
     6     1     2   ar
     7     2     3   ar
     8     6     3    1
     9     6     7    1
    10     7     8    1
    11     8    14    1
    12    14    15    1
    13    14    16    1
    14    14    17    1
    15     8     9    1
    16     9    10    1
    17    10    11    1
    18    11    18    1
    19    18    19    1
    20    19    20    1
    21    19    21    1
    22    19    22    1
    23    11    12   am
    24    12    13    2
    25     3     4   ar
    26     4     5   ar
    27    25    26   ar
    28    26    27   ar
    29    27    28   ar
    30    28    29    1
    31    29    30   ar
    32    30    31   ar
    33    31    32   ar
    34    32    33    1
    35    32    34   ar
    36    28    23   ar
    37    34    29   ar
    38     5     1   ar
    39    12     6    1
@<TRIPOS>MOLECULE
*****
 36 39 0 0 0
SMALL
GASTEIGER

@<TRIPOS>ATOM
      1 C         142.8056  137.2423  157.3692 C.ar    1  UNL1        0.1233
      2 C         142.1667  137.6911  158.6500 C.ar    1  UNL1        0.1180
      3 N         142.6254  139.0913  158.9309 N.ar    1  UNL1       -0.2233
      4 N         143.5476  139.5079  157.8238 N.ar    1  UNL1       -0.0634
      5 N         143.6590  138.3651  156.8585 N.ar    1  UNL1       -0.1287
      6 C         142.2311  139.9282  160.1117 C.3     1  UNL1        0.1827
      7 C         143.3454  140.3077  161.0415 C.3     1  UNL1        0.0339
      8 C         143.2784  141.1277  162.2959 C.3     1  UNL1        0.0041
      9 C         142.0808  141.7705  162.9301 C.3     1  UNL1        0.0216
     10 C         140.6543  141.7523  162.4668 C.3     1  UNL1        0.0937
     11 N         140.0731  141.0866  161.2547 N.am    1  UNL1       -0.2703
     12 C         140.7749  140.2748  160.2066 C.2     1  UNL1        0.2483
     13 O         139.9054  139.7388  159.1082 O.2     1  UNL1       -0.2728
     14 C         144.5815  141.3316  163.0103 C.3     1  UNL1        0.0001
     15 C         144.8646  142.5288  162.1520 C.3     1  UNL1        0.0000
     16 C         144.2984  140.1345  163.8686 C.3     1  UNL1        0.0000
     17 C         145.8845  141.5356  163.7246 C.3     1  UNL1        0.0000
     18 C         138.5946  141.2550  161.0658 C.3     1  UNL1        0.1974
     19 C         137.7240  141.6050  162.2361 C.3     1  UNL1        0.4157
     20 F         136.8534  141.9550  163.4063 F       1  UNL1       -0.1682
     21 F         137.7564  140.1750  162.6879 F       1  UNL1       -0.1682
     22 F         137.6916  143.0350  161.7842 F       1  UNL1       -0.1682
     23 C         143.1426  133.3620  156.6078 C.ar    1  UNL1        0.1547
     24 C         143.3253  134.6990  157.2630 C.ar    1  UNL1        0.0400
     25 C         142.6229  135.9053  156.7141 C.ar    1  UNL1        0.0241
     26 C         141.7377  135.7747  155.5101 C.ar    1  UNL1        0.0033
     27 C         141.5551  134.4378  154.8550 C.ar    1  UNL1        0.0207
     28 C         142.2575  133.2314  155.4039 C.ar    1  UNL1        0.0994
     29 N         142.0748  131.8945  154.7487 N.ar    1  UNL1       -0.2839
     30 C         143.0568  131.2162  153.8401 C.ar    1  UNL1        0.1826
     31 N         142.4668  129.9036  153.4170 N.ar    1  UNL1       -0.2280
     32 C         141.1202  129.7706  154.0642 C.ar    1  UNL1        0.0786
     33 C         140.1807  128.6108  153.9145 C.3     1  UNL1        0.0538
     34 C         140.8778  131.0010  154.8872 C.ar    1  UNL1        0.0963
     35 C         145.1177  132.3176  157.9340 C.3     1  UNL1        0.2525
     36 O         143.8450  132.1555  157.1566 O.3     1  UNL1       -0.4700
@<TRIPOS>BOND
     1    35    36    1
     2    36    23    1
     3    23    24   ar
     4    24    25   ar
     5    25     1    1
     6     1     2   ar
     7     2     3   ar
     8     6     3    1
     9     6     7    1
    10     7     8    1
    11     8    14    1
    12    14    15    1
    13    14    16    1
    14    14    17    1
    15     8     9    1
    16     9    10    1
    17    10    11    1
    18    11    18    1
    19    18    19    1
    20    19    20    1
    21    19    21    1
    22    19    22    1
    23    11    12   am
    24    12    13    2
    25     3     4   ar
    26     4     5   ar
    27    25    26   ar
    28    26    27   ar
    29    27    28   ar
    30    28    29    1
    31    29    30   ar
    32    30    31   ar
    33    31    32   ar
    34    32    33    1
    35    32    34   ar
    36    28    23   ar
    37    34    29   ar
    38     5     1   ar
    39    12     6    1
