@<TRIPOS>MOLECULE
*****
 19 21 0 0 0
SMALL
GASTEIGER

@<TRIPOS>ATOM
      1 C         137.7155  138.4257  166.8138 C.3     1  UNL1        0.0307
      2 C         138.9525  138.5551  165.9751 C.ar    1  UNL1       -0.0242
      3 C         139.0886  137.7584  164.7114 C.ar    1  UNL1        0.0161
      4 C         140.3255  137.8878  163.8728 C.ar    1  UNL1        0.0984
      5 N         140.7392  137.2353  162.5871 N.ar    1  UNL1       -0.2239
      6 C         142.0957  137.7581  162.2176 C.ar    1  UNL1        0.1788
      7 N         142.5204  138.7337  163.2749 N.ar    1  UNL1       -0.3048
      8 C         141.4263  138.8139  164.2979 C.ar    1  UNL1        0.0788
      9 C         141.2902  139.6105  165.5616 C.ar    1  UNL1        0.0142
     10 C         140.0533  139.4811  166.4001 C.ar    1  UNL1       -0.0243
     11 C         139.9172  140.2777  167.6639 C.3     1  UNL1        0.0307
     12 C         143.8123  139.4953  163.3040 C.3     1  UNL1        0.1343
     13 C         143.8007  140.9856  163.4741 C.ar    1  UNL1        0.0005
     14 C         144.4114  141.6057  164.6957 C.ar    1  UNL1       -0.0015
     15 C         144.3999  143.0960  164.8658 C.ar    1  UNL1        0.0111
     16 C         143.7776  143.9661  163.8142 C.ar    1  UNL1        0.0577
     17 CL        143.7660  145.4564  163.9843 Cl      1  UNL1       -0.0822
     18 C         143.1669  143.3458  162.5926 C.ar    1  UNL1        0.0111
     19 C         143.1784  141.8556  162.4226 C.ar    1  UNL1       -0.0015
@<TRIPOS>BOND
     1     1     2    1
     2     2     3   ar
     3     3     4   ar
     4     4     5   ar
     5     5     6   ar
     6     6     7   ar
     7     7    12    1
     8    12    13    1
     9    13    14   ar
    10    14    15   ar
    11    15    16   ar
    12    16    17    1
    13    16    18   ar
    14    18    19   ar
    15     7     8   ar
    16     8     9   ar
    17     9    10   ar
    18    10    11    1
    19    10     2   ar
    20     8     4   ar
    21    19    13   ar
@<TRIPOS>MOLECULE
*****
 19 21 0 0 0
SMALL
GASTEIGER

@<TRIPOS>ATOM
      1 C         138.6791  145.4462  162.4090 C.3     1  UNL1        0.0307
      2 C         138.6037  144.0427  162.9332 C.ar    1  UNL1       -0.0242
      3 C         138.4484  142.8939  161.9811 C.ar    1  UNL1        0.0161
      4 C         138.3729  141.4905  162.5052 C.ar    1  UNL1        0.0984
      5 N         138.2216  140.1678  161.8141 N.ar    1  UNL1       -0.2239
      6 C         138.2078  139.0957  162.8631 C.ar    1  UNL1        0.1788
      7 N         138.3507  139.7557  164.2025 N.ar    1  UNL1       -0.3048
      8 C         138.4528  141.2358  163.9813 C.ar    1  UNL1        0.0788
      9 C         138.6080  142.3846  164.9333 C.ar    1  UNL1        0.0142
     10 C         138.6835  143.7880  164.4092 C.ar    1  UNL1       -0.0243
     11 C         138.8388  144.9367  165.3612 C.3     1  UNL1        0.0307
     12 C         138.3855  139.0581  165.5299 C.3     1  UNL1        0.1343
     13 C         139.4821  139.3606  166.5077 C.ar    1  UNL1        0.0005
     14 C         139.1441  139.7700  167.9105 C.ar    1  UNL1       -0.0015
     15 C         140.2407  140.0725  168.8884 C.ar    1  UNL1        0.0111
     16 C         141.6752  139.9655  168.4632 C.ar    1  UNL1        0.0577
     17 CL        142.7718  140.2680  169.4409 Cl      1  UNL1       -0.0822
     18 C         142.0131  139.5561  167.0602 C.ar    1  UNL1        0.0111
     19 C         140.9165  139.2536  166.0825 C.ar    1  UNL1       -0.0015
@<TRIPOS>BOND
     1     1     2    1
     2     2     3   ar
     3     3     4   ar
     4     4     5   ar
     5     5     6   ar
     6     6     7   ar
     7     7    12    1
     8    12    13    1
     9    13    14   ar
    10    14    15   ar
    11    15    16   ar
    12    16    17    1
    13    16    18   ar
    14    18    19   ar
    15     7     8   ar
    16     8     9   ar
    17     9    10   ar
    18    10    11    1
    19    10     2   ar
    20     8     4   ar
    21    19    13   ar
@<TRIPOS>MOLECULE
*****
 19 21 0 0 0
SMALL
GASTEIGER

@<TRIPOS>ATOM
      1 C         139.9883  146.0948  162.3145 C.3     1  UNL1        0.0307
      2 C         140.7069  145.0785  163.1517 C.ar    1  UNL1       -0.0242
      3 C         142.1321  144.7258  162.8439 C.ar    1  UNL1        0.0161
      4 C         142.8507  143.7095  163.6811 C.ar    1  UNL1        0.0984
      5 N         144.2461  143.1629  163.6180 N.ar    1  UNL1       -0.2239
      6 C         144.4020  142.1615  164.7238 C.ar    1  UNL1        0.1788
      7 N         143.1030  142.0893  165.4703 N.ar    1  UNL1       -0.3048
      8 C         142.1442  143.0460  164.8259 C.ar    1  UNL1        0.0788
      9 C         140.7191  143.3987  165.1335 C.ar    1  UNL1        0.0142
     10 C         140.0005  144.4150  164.2964 C.ar    1  UNL1       -0.0243
     11 C         138.5753  144.7677  164.6041 C.3     1  UNL1        0.0307
     12 C         142.8136  141.2139  166.6536 C.3     1  UNL1        0.1343
     13 C         141.4867  140.5241  166.7695 C.ar    1  UNL1        0.0005
     14 C         140.9752  139.6866  165.6351 C.ar    1  UNL1       -0.0015
     15 C         139.6483  138.9967  165.7510 C.ar    1  UNL1        0.0111
     16 C         138.8329  139.1444  167.0014 C.ar    1  UNL1        0.0577
     17 CL        137.5060  138.4545  167.1173 Cl      1  UNL1       -0.0822
     18 C         139.3445  139.9819  168.1358 C.ar    1  UNL1        0.0111
     19 C         140.6713  140.6717  168.0199 C.ar    1  UNL1       -0.0015
@<TRIPOS>BOND
     1     1     2    1
     2     2     3   ar
     3     3     4   ar
     4     4     5   ar
     5     5     6   ar
     6     6     7   ar
     7     7    12    1
     8    12    13    1
     9    13    14   ar
    10    14    15   ar
    11    15    16   ar
    12    16    17    1
    13    16    18   ar
    14    18    19   ar
    15     7     8   ar
    16     8     9   ar
    17     9    10   ar
    18    10    11    1
    19    10     2   ar
    20     8     4   ar
    21    19    13   ar
@<TRIPOS>MOLECULE
*****
 19 21 0 0 0
SMALL
GASTEIGER

@<TRIPOS>ATOM
      1 C         143.7489  138.0762  166.4602 C.3     1  UNL1        0.0307
      2 C         142.4804  138.5263  165.7978 C.ar    1  UNL1       -0.0242
      3 C         141.8221  137.6559  164.7687 C.ar    1  UNL1        0.0161
      4 C         140.5537  138.1059  164.1063 C.ar    1  UNL1        0.0984
      5 N         139.6843  137.4671  163.0642 N.ar    1  UNL1       -0.2239
      6 C         138.5370  138.3927  162.7870 C.ar    1  UNL1        0.1788
      7 N         138.6973  139.6035  163.6577 N.ar    1  UNL1       -0.3048
      8 C         139.9437  139.4263  164.4731 C.ar    1  UNL1        0.0788
      9 C         140.6021  140.2966  165.5023 C.ar    1  UNL1        0.0142
     10 C         141.8704  139.8465  166.1646 C.ar    1  UNL1       -0.0243
     11 C         142.5287  140.7169  167.1938 C.3     1  UNL1        0.0307
     12 C         137.7733  140.7843  163.7047 C.3     1  UNL1        0.1343
     13 C         138.2655  142.1388  163.2887 C.ar    1  UNL1        0.0005
     14 C         138.8852  142.3287  161.9361 C.ar    1  UNL1       -0.0015
     15 C         139.3773  143.6832  161.5200 C.ar    1  UNL1        0.0111
     16 C         139.2498  144.8478  162.4568 C.ar    1  UNL1        0.0577
     17 CL        139.7419  146.2023  162.0408 Cl      1  UNL1       -0.0822
     18 C         138.6301  144.6578  163.8095 C.ar    1  UNL1        0.0111
     19 C         138.1379  143.3034  164.2255 C.ar    1  UNL1       -0.0015
@<TRIPOS>BOND
     1     1     2    1
     2     2     3   ar
     3     3     4   ar
     4     4     5   ar
     5     5     6   ar
     6     6     7   ar
     7     7    12    1
     8    12    13    1
     9    13    14   ar
    10    14    15   ar
    11    15    16   ar
    12    16    17    1
    13    16    18   ar
    14    18    19   ar
    15     7     8   ar
    16     8     9   ar
    17     9    10   ar
    18    10    11    1
    19    10     2   ar
    20     8     4   ar
    21    19    13   ar
@<TRIPOS>MOLECULE
*****
 19 21 0 0 0
SMALL
GASTEIGER

@<TRIPOS>ATOM
      1 C         142.7777  143.2428  170.6187 C.3     1  UNL1        0.0307
      2 C         142.1522  142.3188  169.6161 C.ar    1  UNL1       -0.0242
      3 C         143.0171  141.5604  168.6534 C.ar    1  UNL1        0.0161
      4 C         142.3917  140.6365  167.6508 C.ar    1  UNL1        0.0984
      5 N         142.9837  139.7639  166.5840 N.ar    1  UNL1       -0.2239
      6 C         141.8592  139.0591  165.8848 C.ar    1  UNL1        0.1788
      7 N         140.5722  139.4962  166.5195 N.ar    1  UNL1       -0.3048
      8 C         140.9013  140.4711  167.6109 C.ar    1  UNL1        0.0788
      9 C         140.0365  141.2295  168.5736 C.ar    1  UNL1        0.0142
     10 C         140.6620  142.1534  169.5762 C.ar    1  UNL1       -0.0243
     11 C         139.7971  142.9118  170.5389 C.3     1  UNL1        0.0307
     12 C         139.1976  139.0386  166.1309 C.3     1  UNL1        0.1343
     13 C         138.7267  139.1967  164.7155 C.ar    1  UNL1        0.0005
     14 C         138.8744  138.0627  163.7449 C.ar    1  UNL1       -0.0015
     15 C         138.4035  138.2207  162.3296 C.ar    1  UNL1        0.0111
     16 C         137.7848  139.5128  161.8849 C.ar    1  UNL1        0.0577
     17 CL        137.3139  139.6709  160.4695 Cl      1  UNL1       -0.0822
     18 C         137.6371  140.6468  162.8555 C.ar    1  UNL1        0.0111
     19 C         138.1080  140.4888  164.2708 C.ar    1  UNL1       -0.0015
@<TRIPOS>BOND
     1     1     2    1
     2     2     3   ar
     3     3     4   ar
     4     4     5   ar
     5     5     6   ar
     6     6     7   ar
     7     7    12    1
     8    12    13    1
     9    13    14   ar
    10    14    15   ar
    11    15    16   ar
    12    16    17    1
    13    16    18   ar
    14    18    19   ar
    15     7     8   ar
    16     8     9   ar
    17     9    10   ar
    18    10    11    1
    19    10     2   ar
    20     8     4   ar
    21    19    13   ar
@<TRIPOS>MOLECULE
*****
 19 21 0 0 0
SMALL
GASTEIGER

@<TRIPOS>ATOM
      1 C         139.7781  146.2578  161.8465 C.3     1  UNL1        0.0307
      2 C         139.7158  144.9560  162.5891 C.ar    1  UNL1       -0.0242
      3 C         138.5224  144.0605  162.4341 C.ar    1  UNL1        0.0161
      4 C         138.4601  142.7587  163.1767 C.ar    1  UNL1        0.0984
      5 N         137.4211  141.6778  163.2220 N.ar    1  UNL1       -0.2239
      6 C         137.9101  140.6034  164.1476 C.ar    1  UNL1        0.1788
      7 N         139.2512  141.0204  164.6744 N.ar    1  UNL1       -0.3048
      8 C         139.5912  142.3525  164.0743 C.ar    1  UNL1        0.0788
      9 C         140.7845  143.2480  164.2293 C.ar    1  UNL1        0.0142
     10 C         140.8467  144.5497  163.4867 C.ar    1  UNL1       -0.0243
     11 C         142.0401  145.4453  163.6417 C.3     1  UNL1        0.0307
     12 C         140.1028  140.2420  165.6329 C.3     1  UNL1        0.1343
     13 C         140.2185  140.6830  167.0620 C.ar    1  UNL1        0.0005
     14 C         141.1396  141.8090  167.4271 C.ar    1  UNL1       -0.0015
     15 C         141.2554  142.2501  168.8561 C.ar    1  UNL1        0.0111
     16 C         140.4499  141.5649  169.9200 C.ar    1  UNL1        0.0577
     17 CL        140.5656  142.0059  171.3490 Cl      1  UNL1       -0.0822
     18 C         139.5288  140.4388  169.5548 C.ar    1  UNL1        0.0111
     19 C         139.4131  139.9978  168.1258 C.ar    1  UNL1       -0.0015
@<TRIPOS>BOND
     1     1     2    1
     2     2     3   ar
     3     3     4   ar
     4     4     5   ar
     5     5     6   ar
     6     6     7   ar
     7     7    12    1
     8    12    13    1
     9    13    14   ar
    10    14    15   ar
    11    15    16   ar
    12    16    17    1
    13    16    18   ar
    14    18    19   ar
    15     7     8   ar
    16     8     9   ar
    17     9    10   ar
    18    10    11    1
    19    10     2   ar
    20     8     4   ar
    21    19    13   ar
@<TRIPOS>MOLECULE
*****
 19 21 0 0 0
SMALL
GASTEIGER

@<TRIPOS>ATOM
      1 C         142.1097  139.4978  169.1224 C.3     1  UNL1        0.0307
      2 C         142.6062  140.0684  167.8269 C.ar    1  UNL1       -0.0242
      3 C         143.0169  139.1523  166.7124 C.ar    1  UNL1        0.0161
      4 C         143.5134  139.7229  165.4170 C.ar    1  UNL1        0.0984
      5 N         143.9849  139.0738  164.1497 N.ar    1  UNL1       -0.2239
      6 C         144.3622  140.1592  163.1856 C.ar    1  UNL1        0.1788
      7 N         144.1238  141.4792  163.8571 N.ar    1  UNL1       -0.3048
      8 C         143.5992  141.2095  165.2362 C.ar    1  UNL1        0.0788
      9 C         143.1885  142.1255  166.3508 C.ar    1  UNL1        0.0142
     10 C         142.6920  141.5549  167.6461 C.ar    1  UNL1       -0.0243
     11 C         142.2814  142.4711  168.7607 C.3     1  UNL1        0.0307
     12 C         144.3673  142.8313  163.2551 C.3     1  UNL1        0.1343
     13 C         143.2073  143.7062  162.8821 C.ar    1  UNL1        0.0005
     14 C         142.6418  144.6691  163.8835 C.ar    1  UNL1       -0.0015
     15 C         141.4818  145.5440  163.5105 C.ar    1  UNL1        0.0111
     16 C         140.8874  145.4558  162.1361 C.ar    1  UNL1        0.0577
     17 CL        139.7274  146.3306  161.7631 Cl      1  UNL1       -0.0822
     18 C         141.4530  144.4927  161.1348 C.ar    1  UNL1        0.0111
     19 C         142.6129  143.6180  161.5078 C.ar    1  UNL1       -0.0015
@<TRIPOS>BOND
     1     1     2    1
     2     2     3   ar
     3     3     4   ar
     4     4     5   ar
     5     5     6   ar
     6     6     7   ar
     7     7    12    1
     8    12    13    1
     9    13    14   ar
    10    14    15   ar
    11    15    16   ar
    12    16    17    1
    13    16    18   ar
    14    18    19   ar
    15     7     8   ar
    16     8     9   ar
    17     9    10   ar
    18    10    11    1
    19    10     2   ar
    20     8     4   ar
    21    19    13   ar
@<TRIPOS>MOLECULE
*****
 19 21 0 0 0
SMALL
GASTEIGER

@<TRIPOS>ATOM
      1 C         139.5891  146.0498  162.0952 C.3     1  UNL1        0.0307
      2 C         140.4029  145.0923  162.9146 C.ar    1  UNL1       -0.0242
      3 C         141.8271  145.4184  163.2541 C.ar    1  UNL1        0.0161
      4 C         142.6408  144.4610  164.0735 C.ar    1  UNL1        0.0984
      5 N         144.0583  144.5110  164.5615 N.ar    1  UNL1       -0.2239
      6 C         144.3238  143.2585  165.3430 C.ar    1  UNL1        0.1788
      7 N         143.0704  142.4345  165.3379 N.ar    1  UNL1       -0.3048
      8 C         142.0302  143.1777  164.5533 C.ar    1  UNL1        0.0788
      9 C         140.6060  142.8517  164.2138 C.ar    1  UNL1        0.0142
     10 C         139.7924  143.8091  163.3944 C.ar    1  UNL1       -0.0243
     11 C         138.3681  143.4830  163.0549 C.3     1  UNL1        0.0307
     12 C         142.8891  141.1013  166.0011 C.3     1  UNL1        0.1343
     13 C         141.7968  140.9083  167.0110 C.ar    1  UNL1        0.0005
     14 C         140.5785  140.1094  166.6544 C.ar    1  UNL1       -0.0015
     15 C         139.4862  139.9164  167.6643 C.ar    1  UNL1        0.0111
     16 C         139.6125  140.5224  169.0306 C.ar    1  UNL1        0.0577
     17 CL        138.5202  140.3294  170.0405 Cl      1  UNL1       -0.0822
     18 C         140.8309  141.3213  169.3871 C.ar    1  UNL1        0.0111
     19 C         141.9231  141.5142  168.3773 C.ar    1  UNL1       -0.0015
@<TRIPOS>BOND
     1     1     2    1
     2     2     3   ar
     3     3     4   ar
     4     4     5   ar
     5     5     6   ar
     6     6     7   ar
     7     7    12    1
     8    12    13    1
     9    13    14   ar
    10    14    15   ar
    11    15    16   ar
    12    16    17    1
    13    16    18   ar
    14    18    19   ar
    15     7     8   ar
    16     8     9   ar
    17     9    10   ar
    18    10    11    1
    19    10     2   ar
    20     8     4   ar
    21    19    13   ar
@<TRIPOS>MOLECULE
*****
 19 21 0 0 0
SMALL
GASTEIGER

@<TRIPOS>ATOM
      1 C         143.0504  141.3851  169.6420 C.3     1  UNL1        0.0307
      2 C         141.9878  141.0674  168.6320 C.ar    1  UNL1       -0.0242
      3 C         140.8010  140.2394  169.0271 C.ar    1  UNL1        0.0161
      4 C         139.7384  139.9218  168.0172 C.ar    1  UNL1        0.0984
      5 N         138.4650  139.1351  168.1138 N.ar    1  UNL1       -0.2239
      6 C         137.8021  139.1591  166.7684 C.ar    1  UNL1        0.1788
      7 N         138.6660  139.9606  165.8403 N.ar    1  UNL1       -0.3048
      8 C         139.8627  140.4320  166.6121 C.ar    1  UNL1        0.0788
      9 C         141.0495  141.2599  166.2170 C.ar    1  UNL1        0.0142
     10 C         142.1120  141.5775  167.2269 C.ar    1  UNL1       -0.0243
     11 C         143.2989  142.4055  166.8318 C.3     1  UNL1        0.0307
     12 C         138.3828  140.2415  164.3943 C.3     1  UNL1        0.1343
     13 C         138.5962  141.6197  163.8421 C.ar    1  UNL1        0.0005
     14 C         137.7693  142.7655  164.3454 C.ar    1  UNL1       -0.0015
     15 C         137.9826  144.1438  163.7933 C.ar    1  UNL1        0.0111
     16 C         139.0229  144.3762  162.7378 C.ar    1  UNL1        0.0577
     17 CL        139.2363  145.7545  162.1857 Cl      1  UNL1       -0.0822
     18 C         139.8498  143.2303  162.2346 C.ar    1  UNL1        0.0111
     19 C         139.6364  141.8521  162.7867 C.ar    1  UNL1       -0.0015
@<TRIPOS>BOND
     1     1     2    1
     2     2     3   ar
     3     3     4   ar
     4     4     5   ar
     5     5     6   ar
     6     6     7   ar
     7     7    12    1
     8    12    13    1
     9    13    14   ar
    10    14    15   ar
    11    15    16   ar
    12    16    17    1
    13    16    18   ar
    14    18    19   ar
    15     7     8   ar
    16     8     9   ar
    17     9    10   ar
    18    10    11    1
    19    10     2   ar
    20     8     4   ar
    21    19    13   ar
