@<TRIPOS>MOLECULE
*****
 33 36 0 0 0
SMALL
GASTEIGER

@<TRIPOS>ATOM
      1 C         140.2223  140.5392  170.0557 C.ar    1  UNL1        0.1691
      2 N         138.8431  139.9953  170.2835 N.ar    1  UNL1       -0.1409
      3 N         138.0433  139.4710  169.1279 N.ar    1  UNL1       -0.1329
      4 C         138.6228  139.4906  167.7445 C.ar    1  UNL1        0.1515
      5 C         140.0020  140.0345  167.5167 C.ar    1  UNL1        0.0522
      6 C         140.8018  140.5588  168.6723 C.ar    1  UNL1        0.0764
      7 N         142.3327  140.4265  171.5668 N.am    1  UNL1       -0.3240
      8 C         141.0221  141.0635  171.2113 C.2     1  UNL1        0.2635
      9 O         140.5113  142.2249  172.0115 O.2     1  UNL1       -0.2686
     10 H         142.8576  140.7707  172.3253 H       1  UNL1        0.1453
     11 H         142.6681  139.6643  171.0417 H       1  UNL1        0.1453
     12 N         137.8230  138.9663  166.5889 N.pl3   1  UNL1       -0.3170
     13 H         136.8807  138.7120  166.7175 H       1  UNL1        0.1482
     14 C         138.4589  138.8296  165.2372 C.3     1  UNL1        0.0845
     15 C         139.2654  137.6085  164.9080 C.3     1  UNL1        0.0209
     16 C         139.9013  137.4716  163.5564 C.3     1  UNL1        0.0018
     17 C         139.7307  138.5559  162.5340 C.3     1  UNL1        0.0015
     18 C         138.9242  139.7770  162.8633 C.3     1  UNL1        0.0172
     19 C         138.2883  139.9139  164.2149 C.3     1  UNL1        0.0689
     20 N         137.4818  141.1350  164.5442 N.3     1  UNL1       -0.3209
     21 H         137.4712  141.7625  163.7401 H       1  UNL1        0.1189
     22 H         137.8990  141.6129  165.3429 H       1  UNL1        0.1189
     23 N         142.1811  141.1027  168.4445 N.pl3   1  UNL1       -0.2965
     24 H         142.6365  141.6044  169.1587 H       1  UNL1        0.1537
     25 C         142.8664  140.8820  167.1285 C.ar    1  UNL1        0.1318
     26 C         143.0819  139.4876  166.6196 C.ar    1  UNL1        0.0341
     27 C         143.7672  139.2670  165.3037 C.ar    1  UNL1       -0.0002
     28 C         144.2370  140.4409  164.4967 C.ar    1  UNL1       -0.0085
     29 C         144.0215  141.8354  165.0056 C.ar    1  UNL1        0.0564
     30 N         143.3362  142.0560  166.3215 N.ar    1  UNL1       -0.2352
     31 C         144.5892  142.7897  163.9971 C.3     1  UNL1        0.0459
     32 C         145.1555  141.9851  162.8650 C.3     1  UNL1        0.0110
     33 C         144.9379  140.5334  163.1737 C.3     1  UNL1        0.0279
@<TRIPOS>BOND
     1     7     8   am
     2     8     9    2
     3     8     1    1
     4     1     2   ar
     5     2     3   ar
     6     3     4   ar
     7     4    12    1
     8    14    12    1
     9    14    15    1
    10    15    16    1
    11    16    17    1
    12    17    18    1
    13    18    19    1
    14    19    20    1
    15     4     5   ar
    16     5     6   ar
    17     6    23    1
    18    23    25    1
    19    25    26   ar
    20    26    27   ar
    21    27    28   ar
    22    28    29   ar
    23    29    30   ar
    24    29    31    1
    25    31    32    1
    26    32    33    1
    27     6     1   ar
    28    30    25   ar
    29    19    14    1
    30    33    28    1
    31     7    10    1
    32     7    11    1
    33    12    13    1
    34    20    21    1
    35    20    22    1
    36    23    24    1
@<TRIPOS>MOLECULE
*****
 33 36 0 0 0
SMALL
GASTEIGER

@<TRIPOS>ATOM
      1 C         139.3061  139.8130  168.0933 C.ar    1  UNL1        0.1691
      2 N         138.0586  139.0098  167.8730 N.ar    1  UNL1       -0.1409
      3 N         137.8714  138.2511  166.5926 N.ar    1  UNL1       -0.1329
      4 C         138.9318  138.2955  165.5326 C.ar    1  UNL1        0.1515
      5 C         140.1793  139.0987  165.7530 C.ar    1  UNL1        0.0522
      6 C         140.3665  139.8574  167.0333 C.ar    1  UNL1        0.0764
      7 N         139.2507  139.8939  170.6895 N.am    1  UNL1       -0.3240
      8 C         139.4933  140.5718  169.3736 C.2     1  UNL1        0.2635
      9 O         139.9231  142.0084  169.3380 O.2     1  UNL1       -0.2686
     10 H         139.3736  140.3920  171.5298 H       1  UNL1        0.1453
     11 H         138.9686  138.9510  170.7129 H       1  UNL1        0.1453
     12 N         138.7446  137.5367  164.2523 N.pl3   1  UNL1       -0.3170
     13 H         138.4356  136.6022  164.2746 H       1  UNL1        0.1482
     14 C         139.0282  138.2017  162.9380 C.3     1  UNL1        0.0845
     15 C         138.0342  139.1605  162.3528 C.3     1  UNL1        0.0209
     16 C         138.3177  139.8255  161.0385 C.3     1  UNL1        0.0018
     17 C         139.5953  139.5317  160.3095 C.3     1  UNL1        0.0015
     18 C         140.5893  138.5728  160.8947 C.3     1  UNL1        0.0172
     19 C         140.3058  137.9078  162.2090 C.3     1  UNL1        0.0689
     20 N         141.2998  136.9489  162.7943 N.3     1  UNL1       -0.3209
     21 H         142.1029  136.8689  162.1706 H       1  UNL1        0.1189
     22 H         140.8639  136.0336  162.9064 H       1  UNL1        0.1189
     23 N         141.6141  140.6606  167.2536 N.pl3   1  UNL1       -0.2965
     24 H         142.1895  140.4732  168.0301 H       1  UNL1        0.1537
     25 C         141.9849  141.7495  166.2907 C.ar    1  UNL1        0.1318
     26 C         143.4255  141.9904  165.9496 C.ar    1  UNL1        0.0341
     27 C         143.7963  143.0792  164.9868 C.ar    1  UNL1       -0.0002
     28 C         142.7265  143.9270  164.3651 C.ar    1  UNL1       -0.0085
     29 C         141.2858  143.6861  164.7062 C.ar    1  UNL1        0.0564
     30 N         140.9149  142.5973  165.6690 N.ar    1  UNL1       -0.2352
     31 C         140.4567  144.6749  163.9415 C.3     1  UNL1        0.0459
     32 C         141.3850  145.5271  163.1278 C.3     1  UNL1        0.0110
     33 C         142.7878  145.0648  163.3896 C.3     1  UNL1        0.0279
@<TRIPOS>BOND
     1     7     8   am
     2     8     9    2
     3     8     1    1
     4     1     2   ar
     5     2     3   ar
     6     3     4   ar
     7     4    12    1
     8    14    12    1
     9    14    15    1
    10    15    16    1
    11    16    17    1
    12    17    18    1
    13    18    19    1
    14    19    20    1
    15     4     5   ar
    16     5     6   ar
    17     6    23    1
    18    23    25    1
    19    25    26   ar
    20    26    27   ar
    21    27    28   ar
    22    28    29   ar
    23    29    30   ar
    24    29    31    1
    25    31    32    1
    26    32    33    1
    27     6     1   ar
    28    30    25   ar
    29    19    14    1
    30    33    28    1
    31     7    10    1
    32     7    11    1
    33    12    13    1
    34    20    21    1
    35    20    22    1
    36    23    24    1
@<TRIPOS>MOLECULE
*****
 33 36 0 0 0
SMALL
GASTEIGER

@<TRIPOS>ATOM
      1 C         138.4540  138.8234  163.2849 C.ar    1  UNL1        0.1691
      2 N         139.1956  137.7477  164.0218 N.ar    1  UNL1       -0.1409
      3 N         139.3946  137.8548  165.5047 N.ar    1  UNL1       -0.1329
      4 C         138.8521  139.0376  166.2507 C.ar    1  UNL1        0.1515
      5 C         138.1106  140.1133  165.5138 C.ar    1  UNL1        0.0522
      6 C         137.9116  140.0062  164.0309 C.ar    1  UNL1        0.0764
      7 N         139.2446  139.3432  160.8653 N.am    1  UNL1       -0.3240
      8 C         138.2550  138.7163  161.8021 C.2     1  UNL1        0.2635
      9 O         137.0663  137.9822  161.2560 O.2     1  UNL1       -0.2686
     10 H         139.1139  139.2728  159.8920 H       1  UNL1        0.1453
     11 H         140.0248  139.8250  161.2236 H       1  UNL1        0.1453
     12 N         139.0511  139.1447  167.7335 N.pl3   1  UNL1       -0.3170
     13 H         138.8270  138.3837  168.3165 H       1  UNL1        0.1482
     14 C         139.5916  140.4113  168.3282 C.3     1  UNL1        0.0845
     15 C         140.5032  141.2887  167.5225 C.3     1  UNL1        0.0209
     16 C         141.0438  142.5553  168.1171 C.3     1  UNL1        0.0018
     17 C         140.6728  142.9444  169.5174 C.3     1  UNL1        0.0015
     18 C         139.7612  142.0669  170.3231 C.3     1  UNL1        0.0172
     19 C         139.2206  140.8004  169.7285 C.3     1  UNL1        0.0689
     20 N         138.3091  139.9229  170.5342 N.3     1  UNL1       -0.3209
     21 H         138.1652  140.3369  171.4553 H       1  UNL1        0.1189
     22 H         138.7302  138.9998  170.6384 H       1  UNL1        0.1189
     23 N         137.1700  141.0820  163.2941 N.pl3   1  UNL1       -0.2965
     24 H         136.2231  140.9534  163.0572 H       1  UNL1        0.1537
     25 C         137.8713  142.3536  162.9181 C.ar    1  UNL1        0.1318
     26 C         137.8681  143.5192  163.8621 C.ar    1  UNL1        0.0341
     27 C         138.5693  144.7908  163.4861 C.ar    1  UNL1       -0.0002
     28 C         139.2737  144.8967  162.1661 C.ar    1  UNL1       -0.0085
     29 C         139.2768  143.7311  161.2219 C.ar    1  UNL1        0.0564
     30 N         138.5756  142.4596  161.5979 N.ar    1  UNL1       -0.2352
     31 C         140.0496  144.1273  159.9989 C.3     1  UNL1        0.0459
     32 C         140.5240  145.5378  160.1871 C.3     1  UNL1        0.0110
     33 C         140.0445  146.0133  161.5265 C.3     1  UNL1        0.0279
@<TRIPOS>BOND
     1     7     8   am
     2     8     9    2
     3     8     1    1
     4     1     2   ar
     5     2     3   ar
     6     3     4   ar
     7     4    12    1
     8    14    12    1
     9    14    15    1
    10    15    16    1
    11    16    17    1
    12    17    18    1
    13    18    19    1
    14    19    20    1
    15     4     5   ar
    16     5     6   ar
    17     6    23    1
    18    23    25    1
    19    25    26   ar
    20    26    27   ar
    21    27    28   ar
    22    28    29   ar
    23    29    30   ar
    24    29    31    1
    25    31    32    1
    26    32    33    1
    27     6     1   ar
    28    30    25   ar
    29    19    14    1
    30    33    28    1
    31     7    10    1
    32     7    11    1
    33    12    13    1
    34    20    21    1
    35    20    22    1
    36    23    24    1
@<TRIPOS>MOLECULE
*****
 33 36 0 0 0
SMALL
GASTEIGER

@<TRIPOS>ATOM
      1 C         139.6985  140.8503  169.5659 C.ar    1  UNL1        0.1691
      2 N         138.5440  139.9117  169.7559 N.ar    1  UNL1       -0.1409
      3 N         137.9906  139.1565  168.5840 N.ar    1  UNL1       -0.1329
      4 C         138.5918  139.3399  167.2220 C.ar    1  UNL1        0.1515
      5 C         139.7463  140.2786  167.0320 C.ar    1  UNL1        0.0522
      6 C         140.2997  141.0337  168.2039 C.ar    1  UNL1        0.0764
      7 N         139.6733  142.9377  171.1127 N.am    1  UNL1       -0.3240
      8 C         140.2519  141.6055  170.7378 C.2     1  UNL1        0.2635
      9 O         141.3840  141.0286  171.5350 O.2     1  UNL1       -0.2686
     10 H         140.0365  143.4333  171.8818 H       1  UNL1        0.1453
     11 H         138.9302  143.3164  170.5895 H       1  UNL1        0.1453
     12 N         138.0384  138.5848  166.0501 N.pl3   1  UNL1       -0.3170
     13 H         137.1403  138.1849  166.1018 H       1  UNL1        0.1482
     14 C         138.8534  138.4387  164.7994 C.3     1  UNL1        0.0845
     15 C         139.9767  137.4459  164.7478 C.3     1  UNL1        0.0209
     16 C         140.7917  137.2998  163.4971 C.3     1  UNL1        0.0018
     17 C         140.4836  138.1465  162.2979 C.3     1  UNL1        0.0015
     18 C         139.3603  139.1393  162.3495 C.3     1  UNL1        0.0172
     19 C         138.5453  139.2854  163.6002 C.3     1  UNL1        0.0689
     20 N         137.4220  140.2783  163.6517 N.3     1  UNL1       -0.3209
     21 H         137.3551  140.7626  162.7565 H       1  UNL1        0.1189
     22 H         137.6011  140.9561  164.3925 H       1  UNL1        0.1189
     23 N         141.4542  141.9723  168.0139 N.pl3   1  UNL1       -0.2965
     24 H         142.0321  142.2026  168.7769 H       1  UNL1        0.1537
     25 C         141.7282  142.5601  166.6613 C.ar    1  UNL1        0.1318
     26 C         140.6386  143.2764  165.9201 C.ar    1  UNL1        0.0341
     27 C         140.9125  143.8642  164.5675 C.ar    1  UNL1       -0.0002
     28 C         142.2762  143.7355  163.9561 C.ar    1  UNL1       -0.0085
     29 C         143.3659  143.0192  164.6973 C.ar    1  UNL1        0.0564
     30 N         143.0920  142.4314  166.0499 N.ar    1  UNL1       -0.2352
     31 C         144.6019  143.0499  163.8480 C.3     1  UNL1        0.0459
     32 C         144.2761  143.7852  162.5818 C.3     1  UNL1        0.0110
     33 C         142.8387  144.2090  162.6487 C.3     1  UNL1        0.0279
@<TRIPOS>BOND
     1     7     8   am
     2     8     9    2
     3     8     1    1
     4     1     2   ar
     5     2     3   ar
     6     3     4   ar
     7     4    12    1
     8    14    12    1
     9    14    15    1
    10    15    16    1
    11    16    17    1
    12    17    18    1
    13    18    19    1
    14    19    20    1
    15     4     5   ar
    16     5     6   ar
    17     6    23    1
    18    23    25    1
    19    25    26   ar
    20    26    27   ar
    21    27    28   ar
    22    28    29   ar
    23    29    30   ar
    24    29    31    1
    25    31    32    1
    26    32    33    1
    27     6     1   ar
    28    30    25   ar
    29    19    14    1
    30    33    28    1
    31     7    10    1
    32     7    11    1
    33    12    13    1
    34    20    21    1
    35    20    22    1
    36    23    24    1
@<TRIPOS>MOLECULE
*****
 33 36 0 0 0
SMALL
GASTEIGER

@<TRIPOS>ATOM
      1 C         141.4918  139.8128  168.7571 C.ar    1  UNL1        0.1691
      2 N         140.0808  139.7749  169.2647 N.ar    1  UNL1       -0.1409
      3 N         138.9392  139.6578  168.2989 N.ar    1  UNL1       -0.1329
      4 C         139.2085  139.5786  166.8254 C.ar    1  UNL1        0.1515
      5 C         140.6195  139.6165  166.3178 C.ar    1  UNL1        0.0522
      6 C         141.7612  139.7336  167.2837 C.ar    1  UNL1        0.0764
      7 N         142.9756  138.7797  170.6229 N.am    1  UNL1       -0.3240
      8 C         142.6335  139.9299  169.7230 C.2     1  UNL1        0.2635
      9 O         143.4331  141.1973  169.7890 O.2     1  UNL1       -0.2686
     10 H         143.7249  138.8566  171.2568 H       1  UNL1        0.1453
     11 H         142.4508  137.9478  170.5797 H       1  UNL1        0.1453
     12 N         138.0669  139.4615  165.8595 N.pl3   1  UNL1       -0.3170
     13 H         137.2987  138.8840  166.0731 H       1  UNL1        0.1482
     14 C         138.0955  140.2243  164.5683 C.3     1  UNL1        0.0845
     15 C         137.8388  141.7022  164.5645 C.3     1  UNL1        0.0209
     16 C         137.8675  142.4651  163.2734 C.3     1  UNL1        0.0018
     17 C         138.1529  141.7501  161.9860 C.3     1  UNL1        0.0015
     18 C         138.4096  140.2723  161.9898 C.3     1  UNL1        0.0172
     19 C         138.3809  139.5094  163.2810 C.3     1  UNL1        0.0689
     20 N         138.6377  138.0315  163.2847 N.3     1  UNL1       -0.3209
     21 H         138.8121  137.7143  162.3312 H       1  UNL1        0.1189
     22 H         137.8234  137.5459  163.6610 H       1  UNL1        0.1189
     23 N         143.1722  139.7715  166.7760 N.pl3   1  UNL1       -0.2965
     24 H         143.8642  139.2169  167.2035 H       1  UNL1        0.1537
     25 C         143.5288  140.6545  165.6170 C.ar    1  UNL1        0.1318
     26 C         144.1667  140.0655  164.3939 C.ar    1  UNL1        0.0341
     27 C         144.5233  140.9484  163.2349 C.ar    1  UNL1       -0.0002
     28 C         144.2421  142.4204  163.2991 C.ar    1  UNL1       -0.0085
     29 C         143.6042  143.0095  164.5223 C.ar    1  UNL1        0.0564
     30 N         143.2475  142.1266  165.6813 N.ar    1  UNL1       -0.2352
     31 C         143.4484  144.4846  164.2992 C.3     1  UNL1        0.0459
     32 C         143.9901  144.8072  162.9381 C.3     1  UNL1        0.0110
     33 C         144.4806  143.5315  162.3200 C.3     1  UNL1        0.0279
@<TRIPOS>BOND
     1     7     8   am
     2     8     9    2
     3     8     1    1
     4     1     2   ar
     5     2     3   ar
     6     3     4   ar
     7     4    12    1
     8    14    12    1
     9    14    15    1
    10    15    16    1
    11    16    17    1
    12    17    18    1
    13    18    19    1
    14    19    20    1
    15     4     5   ar
    16     5     6   ar
    17     6    23    1
    18    23    25    1
    19    25    26   ar
    20    26    27   ar
    21    27    28   ar
    22    28    29   ar
    23    29    30   ar
    24    29    31    1
    25    31    32    1
    26    32    33    1
    27     6     1   ar
    28    30    25   ar
    29    19    14    1
    30    33    28    1
    31     7    10    1
    32     7    11    1
    33    12    13    1
    34    20    21    1
    35    20    22    1
    36    23    24    1
@<TRIPOS>MOLECULE
*****
 33 36 0 0 0
SMALL
GASTEIGER

@<TRIPOS>ATOM
      1 C         143.5680  142.0600  158.7771 C.ar    1  UNL1        0.1691
      2 N         143.7198  140.6707  158.2323 N.ar    1  UNL1       -0.1409
      3 N         143.9714  139.5228  159.1645 N.ar    1  UNL1       -0.1329
      4 C         144.0714  139.7643  160.6416 C.ar    1  UNL1        0.1515
      5 C         143.9196  141.1536  161.1864 C.ar    1  UNL1        0.0522
      6 C         143.6679  142.3014  160.2541 C.ar    1  UNL1        0.0764
      7 N         144.0334  143.2766  156.5291 N.am    1  UNL1       -0.3240
      8 C         143.3164  143.2078  157.8448 C.2     1  UNL1        0.2635
      9 O         142.3477  144.2870  158.2282 O.2     1  UNL1       -0.2686
     10 H         143.8682  144.0300  155.9173 H       1  UNL1        0.1453
     11 H         144.6692  142.5683  156.2774 H       1  UNL1        0.1453
     12 N         144.3230  138.6164  161.5738 N.pl3   1  UNL1       -0.3170
     13 H         144.9144  137.8791  161.2984 H       1  UNL1        0.1482
     14 C         143.6737  138.5919  162.9257 C.3     1  UNL1        0.0845
     15 C         144.3677  139.2114  164.1024 C.3     1  UNL1        0.0209
     16 C         143.7185  139.1869  165.4543 C.3     1  UNL1        0.0018
     17 C         142.3751  138.5429  165.6296 C.3     1  UNL1        0.0015
     18 C         141.6811  137.9235  164.4530 C.3     1  UNL1        0.0172
     19 C         142.3303  137.9479  163.1010 C.3     1  UNL1        0.0689
     20 N         141.6363  137.3285  161.9243 N.3     1  UNL1       -0.3209
     21 H         140.7414  136.9406  162.2229 H       1  UNL1        0.1189
     22 H         142.2180  136.5842  161.5396 H       1  UNL1        0.1189
     23 N         143.5162  143.6908  160.7989 N.pl3   1  UNL1       -0.2965
     24 H         144.1366  144.4009  160.5160 H       1  UNL1        0.1537
     25 C         142.4192  143.9980  161.7748 C.ar    1  UNL1        0.1318
     26 C         142.7208  144.7744  163.0222 C.ar    1  UNL1        0.0341
     27 C         141.6238  145.0817  163.9980 C.ar    1  UNL1       -0.0002
     28 C         140.2252  144.6125  163.7264 C.ar    1  UNL1       -0.0085
     29 C         139.9236  143.8361  162.4789 C.ar    1  UNL1        0.0564
     30 N         141.0205  143.5288  161.5031 N.ar    1  UNL1       -0.2352
     31 C         138.4601  143.5073  162.4800 C.3     1  UNL1        0.0459
     32 C         137.8572  144.0805  163.7282 C.3     1  UNL1        0.0110
     33 C         138.9481  144.7636  164.4985 C.3     1  UNL1        0.0279
@<TRIPOS>BOND
     1     7     8   am
     2     8     9    2
     3     8     1    1
     4     1     2   ar
     5     2     3   ar
     6     3     4   ar
     7     4    12    1
     8    14    12    1
     9    14    15    1
    10    15    16    1
    11    16    17    1
    12    17    18    1
    13    18    19    1
    14    19    20    1
    15     4     5   ar
    16     5     6   ar
    17     6    23    1
    18    23    25    1
    19    25    26   ar
    20    26    27   ar
    21    27    28   ar
    22    28    29   ar
    23    29    30   ar
    24    29    31    1
    25    31    32    1
    26    32    33    1
    27     6     1   ar
    28    30    25   ar
    29    19    14    1
    30    33    28    1
    31     7    10    1
    32     7    11    1
    33    12    13    1
    34    20    21    1
    35    20    22    1
    36    23    24    1
@<TRIPOS>MOLECULE
*****
 33 36 0 0 0
SMALL
GASTEIGER

@<TRIPOS>ATOM
      1 C         143.2325  143.0681  163.7107 C.ar    1  UNL1        0.1691
      2 N         144.3054  143.7215  164.5304 N.ar    1  UNL1       -0.1409
      3 N         144.3527  143.5046  166.0139 N.ar    1  UNL1       -0.1329
      4 C         143.3270  142.6342  166.6776 C.ar    1  UNL1        0.1515
      5 C         142.2541  141.9808  165.8579 C.ar    1  UNL1        0.0522
      6 C         142.2069  142.1978  164.3744 C.ar    1  UNL1        0.0764
      7 N         143.0068  144.6690  161.6769 N.am    1  UNL1       -0.3240
      8 C         143.1853  143.2851  162.2272 C.2     1  UNL1        0.2635
      9 O         143.3164  142.1181  161.2940 O.2     1  UNL1       -0.2686
     10 H         142.9758  144.8114  160.7032 H       1  UNL1        0.1453
     11 H         142.9207  145.4350  162.2893 H       1  UNL1        0.1453
     12 N         143.3743  142.4173  168.1611 N.pl3   1  UNL1       -0.3170
     13 H         144.2068  142.5898  168.6575 H       1  UNL1        0.1482
     14 C         142.1532  141.9375  168.8882 C.3     1  UNL1        0.0845
     15 C         141.1547  142.9271  169.4114 C.3     1  UNL1        0.0209
     16 C         139.9336  142.4474  170.1386 C.3     1  UNL1        0.0018
     17 C         139.7110  140.9781  170.3425 C.3     1  UNL1        0.0015
     18 C         140.7095  139.9885  169.8193 C.3     1  UNL1        0.0172
     19 C         141.9306  140.4682  169.0922 C.3     1  UNL1        0.0689
     20 N         142.9291  139.4786  168.5690 N.3     1  UNL1       -0.3209
     21 H         142.6211  138.5329  168.7951 H       1  UNL1        0.1189
     22 H         143.8375  139.6523  168.9993 H       1  UNL1        0.1189
     23 N         141.1340  141.5444  163.5547 N.pl3   1  UNL1       -0.2965
     24 H         140.9061  141.9028  162.6665 H       1  UNL1        0.1537
     25 C         140.4082  140.3449  164.0882 C.ar    1  UNL1        0.1318
     26 C         140.5747  139.0106  163.4235 C.ar    1  UNL1        0.0341
     27 C         139.8490  137.8112  163.9570 C.ar    1  UNL1       -0.0002
     28 C         138.9568  137.9460  165.1552 C.ar    1  UNL1       -0.0085
     29 C         138.7903  139.2804  165.8200 C.ar    1  UNL1        0.0564
     30 N         139.5160  140.4798  165.2865 N.ar    1  UNL1       -0.2352
     31 C         137.8504  139.1082  166.9763 C.3     1  UNL1        0.0459
     32 C         137.4361  137.6674  167.0262 C.3     1  UNL1        0.0110
     33 C         138.1199  136.9491  165.9007 C.3     1  UNL1        0.0279
@<TRIPOS>BOND
     1     7     8   am
     2     8     9    2
     3     8     1    1
     4     1     2   ar
     5     2     3   ar
     6     3     4   ar
     7     4    12    1
     8    14    12    1
     9    14    15    1
    10    15    16    1
    11    16    17    1
    12    17    18    1
    13    18    19    1
    14    19    20    1
    15     4     5   ar
    16     5     6   ar
    17     6    23    1
    18    23    25    1
    19    25    26   ar
    20    26    27   ar
    21    27    28   ar
    22    28    29   ar
    23    29    30   ar
    24    29    31    1
    25    31    32    1
    26    32    33    1
    27     6     1   ar
    28    30    25   ar
    29    19    14    1
    30    33    28    1
    31     7    10    1
    32     7    11    1
    33    12    13    1
    34    20    21    1
    35    20    22    1
    36    23    24    1
@<TRIPOS>MOLECULE
*****
 33 36 0 0 0
SMALL
GASTEIGER

@<TRIPOS>ATOM
      1 C         142.1501  138.2843  164.8133 C.ar    1  UNL1        0.1691
      2 N         143.4832  138.1504  165.4879 N.ar    1  UNL1       -0.1409
      3 N         143.6917  138.7250  166.8577 N.ar    1  UNL1       -0.1329
      4 C         142.5671  139.4335  167.5529 C.ar    1  UNL1        0.1515
      5 C         141.2341  139.5675  166.8783 C.ar    1  UNL1        0.0522
      6 C         141.0256  138.9929  165.5085 C.ar    1  UNL1        0.0764
      7 N         143.0101  137.8508  162.4003 N.am    1  UNL1       -0.3240
      8 C         141.9416  137.7097  163.4435 C.2     1  UNL1        0.2635
      9 O         140.6645  136.9940  163.1169 O.2     1  UNL1       -0.2686
     10 H         142.8733  137.4737  161.5013 H       1  UNL1        0.1453
     11 H         143.8484  138.3206  162.6147 H       1  UNL1        0.1453
     12 N         142.7756  140.0081  168.9227 N.pl3   1  UNL1       -0.3170
     13 H         143.5254  139.6953  169.4788 H       1  UNL1        0.1482
     14 C         141.8419  141.0593  169.4452 C.3     1  UNL1        0.0845
     15 C         142.0103  142.4888  169.0231 C.3     1  UNL1        0.0209
     16 C         141.0766  143.5401  169.5455 C.3     1  UNL1        0.0018
     17 C         139.9745  143.1619  170.4901 C.3     1  UNL1        0.0015
     18 C         139.8061  141.7324  170.9123 C.3     1  UNL1        0.0172
     19 C         140.7398  140.6811  170.3898 C.3     1  UNL1        0.0689
     20 N         140.5714  139.2516  170.8119 N.3     1  UNL1       -0.3209
     21 H         139.7796  139.1768  171.4506 H       1  UNL1        0.1189
     22 H         141.4188  138.9339  171.2822 H       1  UNL1        0.1189
     23 N         139.6925  139.1268  164.8340 N.pl3   1  UNL1       -0.2965
     24 H         139.1128  138.3381  164.7284 H       1  UNL1        0.1537
     25 C         139.2427  140.4625  164.3202 C.ar    1  UNL1        0.1318
     26 C         137.8464  140.6345  163.8002 C.ar    1  UNL1        0.0341
     27 C         137.3966  141.9701  163.2864 C.ar    1  UNL1       -0.0002
     28 C         138.3433  143.1336  163.2928 C.ar    1  UNL1       -0.0085
     29 C         139.7397  142.9616  163.8128 C.ar    1  UNL1        0.0564
     30 N         140.1894  141.6260  164.3266 N.ar    1  UNL1       -0.2352
     31 C         140.4440  144.2807  163.6950 C.3     1  UNL1        0.0459
     32 C         139.4829  145.2679  163.1020 C.3     1  UNL1        0.0110
     33 C         138.1846  144.5590  162.8535 C.3     1  UNL1        0.0279
@<TRIPOS>BOND
     1     7     8   am
     2     8     9    2
     3     8     1    1
     4     1     2   ar
     5     2     3   ar
     6     3     4   ar
     7     4    12    1
     8    14    12    1
     9    14    15    1
    10    15    16    1
    11    16    17    1
    12    17    18    1
    13    18    19    1
    14    19    20    1
    15     4     5   ar
    16     5     6   ar
    17     6    23    1
    18    23    25    1
    19    25    26   ar
    20    26    27   ar
    21    27    28   ar
    22    28    29   ar
    23    29    30   ar
    24    29    31    1
    25    31    32    1
    26    32    33    1
    27     6     1   ar
    28    30    25   ar
    29    19    14    1
    30    33    28    1
    31     7    10    1
    32     7    11    1
    33    12    13    1
    34    20    21    1
    35    20    22    1
    36    23    24    1
@<TRIPOS>MOLECULE
*****
 33 36 0 0 0
SMALL
GASTEIGER

@<TRIPOS>ATOM
      1 C         140.2883  144.7383  158.3225 C.ar    1  UNL1        0.1691
      2 N         139.3171  143.9173  157.5271 N.ar    1  UNL1       -0.1409
      3 N         138.5732  142.7918  158.1827 N.ar    1  UNL1       -0.1329
      4 C         138.8005  142.4873  159.6337 C.ar    1  UNL1        0.1515
      5 C         139.7718  143.3082  160.4292 C.ar    1  UNL1        0.0522
      6 C         140.5157  144.4337  159.7736 C.ar    1  UNL1        0.0764
      7 N         140.3267  146.7649  156.6973 N.am    1  UNL1       -0.3240
      8 C         141.0322  145.8638  157.6669 C.2     1  UNL1        0.2635
      9 O         142.4818  146.0882  157.9809 O.2     1  UNL1       -0.2686
     10 H         140.8150  147.5036  156.2671 H       1  UNL1        0.1453
     11 H         139.3754  146.6177  156.4912 H       1  UNL1        0.1453
     12 N         138.0566  141.3618  160.2893 N.pl3   1  UNL1       -0.3170
     13 H         137.1483  141.1307  159.9881 H       1  UNL1        0.1482
     14 C         138.6966  140.5884  161.4039 C.3     1  UNL1        0.0845
     15 C         139.9781  139.8470  161.1628 C.3     1  UNL1        0.0209
     16 C         140.6182  139.0736  162.2773 C.3     1  UNL1        0.0018
     17 C         139.9767  139.0415  163.6328 C.3     1  UNL1        0.0015
     18 C         138.6952  139.7828  163.8739 C.3     1  UNL1        0.0172
     19 C         138.0551  140.5563  162.7594 C.3     1  UNL1        0.0689
     20 N         136.7736  141.2976  163.0004 N.3     1  UNL1       -0.3209
     21 H         136.4826  141.1675  163.9693 H       1  UNL1        0.1189
     22 H         136.0506  140.9383  162.3771 H       1  UNL1        0.1189
     23 N         141.4869  145.2547  160.5690 N.pl3   1  UNL1       -0.2965
     24 H         141.5975  146.2131  160.3730 H       1  UNL1        0.1537
     25 C         142.2896  144.6154  161.6632 C.ar    1  UNL1        0.1318
     26 C         142.0139  144.9619  163.0962 C.ar    1  UNL1        0.0341
     27 C         142.8165  144.3226  164.1903 C.ar    1  UNL1       -0.0002
     28 C         143.8950  143.3367  163.8512 C.ar    1  UNL1       -0.0085
     29 C         144.1707  142.9901  162.4181 C.ar    1  UNL1        0.0564
     30 N         143.3681  143.6294  161.3240 N.ar    1  UNL1       -0.2352
     31 C         145.2888  141.9906  162.3898 C.3     1  UNL1        0.0459
     32 C         145.7041  141.7195  163.8054 C.3     1  UNL1        0.0110
     33 C         144.8426  142.5514  164.7086 C.3     1  UNL1        0.0279
@<TRIPOS>BOND
     1     7     8   am
     2     8     9    2
     3     8     1    1
     4     1     2   ar
     5     2     3   ar
     6     3     4   ar
     7     4    12    1
     8    14    12    1
     9    14    15    1
    10    15    16    1
    11    16    17    1
    12    17    18    1
    13    18    19    1
    14    19    20    1
    15     4     5   ar
    16     5     6   ar
    17     6    23    1
    18    23    25    1
    19    25    26   ar
    20    26    27   ar
    21    27    28   ar
    22    28    29   ar
    23    29    30   ar
    24    29    31    1
    25    31    32    1
    26    32    33    1
    27     6     1   ar
    28    30    25   ar
    29    19    14    1
    30    33    28    1
    31     7    10    1
    32     7    11    1
    33    12    13    1
    34    20    21    1
    35    20    22    1
    36    23    24    1
