@<TRIPOS>MOLECULE
*****
 30 35 0 0 0
SMALL
GASTEIGER

@<TRIPOS>ATOM
      1 C         138.6687  139.2456  162.6616 C.3     1  UNL1        0.0493
      2 C         139.0259  137.9809  163.3846 C.3     1  UNL1        0.0238
      3 C         138.9041  137.9107  164.8781 C.3     1  UNL1        0.0730
      4 N         138.4251  139.1053  165.6485 N.3     1  UNL1       -0.2623
      5 C         138.0680  140.3701  164.9254 C.3     1  UNL1        0.0730
      6 C         138.1898  140.4403  163.4320 C.3     1  UNL1        0.0238
      7 C         139.3720  138.7855  158.8723 C.ar    1  UNL1        0.1224
      8 C         138.5840  140.0619  158.8679 C.ar    1  UNL1        0.0587
      9 S         138.2247  140.3896  160.2870 S.2     1  UNL1       -0.0701
     10 C         138.7906  139.3158  161.1682 C.ar    1  UNL1        0.0880
     11 N         139.4997  138.3244  160.2939 N.ar    1  UNL1       -0.2396
     12 C         142.4483  135.8126  154.0451 C.ar    1  UNL1        0.0002
     13 C         141.0937  135.8347  153.4013 C.ar    1  UNL1        0.0031
     14 C         139.9299  136.4463  154.1235 C.ar    1  UNL1        0.0375
     15 C         140.1208  137.0359  155.4895 C.ar    1  UNL1        0.1454
     16 O         139.1680  137.7022  156.4371 O.2     1  UNL1       -0.4520
     17 C         139.9338  138.0920  157.6667 C.ar    1  UNL1        0.1633
     18 C         141.3598  137.6665  157.4789 C.ar    1  UNL1        0.0421
     19 C         141.4754  137.0138  156.1332 C.ar    1  UNL1        0.0376
     20 C         142.6391  136.4021  155.4110 C.ar    1  UNL1        0.0031
     21 C         138.3033  139.0352  167.1418 C.3     1  UNL1        0.1976
     22 C         139.2020  139.8676  168.0075 C.2     1  UNL1        0.3676
     23 N         139.2351  139.8612  169.5071 N.2     1  UNL1       -0.0320
     24 C         140.2790  140.8422  169.9520 C.2     1  UNL1        0.2508
     25 C         140.7513  141.2567  171.3140 C.2     1  UNL1        0.1485
     26 N         141.8357  142.2839  171.4513 N.2     1  UNL1       -0.2425
     27 C         142.4478  142.8965  170.2266 C.2     1  UNL1        0.0815
     28 C         141.9756  142.4820  168.8646 C.3     1  UNL1        0.1247
     29 C         140.8912  141.4548  168.7273 C.2     1  UNL1        0.2207
     30 N         140.2256  140.8525  167.5256 N.2     1  UNL1       -0.0374
@<TRIPOS>BOND
     1    12    13   ar
     2    13    14   ar
     3    14    15   ar
     4    15    16   ar
     5    16    17   ar
     6    17     7    1
     7     7     8   ar
     8     8     9   ar
     9     9    10   ar
    10    10     1    1
    11     1     2    1
    12     2     3    1
    13     3     4    1
    14     4    21    1
    15    21    22    1
    16    22    23    2
    17    23    24    1
    18    24    25    2
    19    25    26    1
    20    26    27    2
    21    27    28    1
    22    28    29    1
    23    29    30    2
    24     4     5    1
    25     5     6    1
    26    10    11   ar
    27    17    18   ar
    28    18    19   ar
    29    19    20   ar
    30    20    12   ar
    31    19    15   ar
    32    11     7   ar
    33     6     1    1
    34    30    22    1
    35    29    24    1
@<TRIPOS>MOLECULE
*****
 30 35 0 0 0
SMALL
GASTEIGER

@<TRIPOS>ATOM
      1 C         143.0423  138.6384  162.6369 C.3     1  UNL1        0.0493
      2 C         144.2525  139.2212  163.3045 C.3     1  UNL1        0.0238
      3 C         144.3839  139.1681  164.7978 C.3     1  UNL1        0.0730
      4 N         143.3051  138.5322  165.6235 N.3     1  UNL1       -0.2623
      5 C         142.0948  137.9494  164.9559 C.3     1  UNL1        0.0730
      6 C         141.9634  138.0025  163.4626 C.3     1  UNL1        0.0238
      7 C         142.6160  138.0292  158.8274 C.ar    1  UNL1        0.1224
      8 C         142.8014  139.5173  158.8639 C.ar    1  UNL1        0.0587
      9 S         142.9837  139.9266  160.2955 S.2     1  UNL1       -0.0701
     10 C         142.9109  138.6915  161.1436 C.ar    1  UNL1        0.0880
     11 N         142.6837  137.5188  160.2362 N.ar    1  UNL1       -0.2396
     12 C         141.1514  134.9426  153.3564 C.ar    1  UNL1        0.0002
     13 C         142.2422  134.0113  153.7954 C.ar    1  UNL1        0.0031
     14 C         142.9740  134.2660  155.0798 C.ar    1  UNL1        0.0375
     15 C         142.6150  135.4519  155.9252 C.ar    1  UNL1        0.1454
     16 O         143.1568  135.9551  157.2302 O.2     1  UNL1       -0.4520
     17 C         142.4008  137.1975  157.5978 C.ar    1  UNL1        0.1633
     18 C         141.3918  137.4620  156.5199 C.ar    1  UNL1        0.0421
     19 C         141.5242  136.3832  155.4861 C.ar    1  UNL1        0.0376
     20 C         140.7924  136.1285  154.2018 C.ar    1  UNL1        0.0031
     21 C         143.4365  138.4791  167.1168 C.3     1  UNL1        0.1976
     22 C         142.6999  139.4687  167.9701 C.2     1  UNL1        0.3676
     23 N         142.5538  139.4102  169.4619 N.2     1  UNL1       -0.0320
     24 C         141.7437  140.5959  169.8952 C.2     1  UNL1        0.2508
     25 C         141.2832  141.0573  171.2461 C.2     1  UNL1        0.1485
     26 N         140.4680  142.3100  171.3731 N.2     1  UNL1       -0.2425
     27 C         140.1134  143.1013  170.1492 C.2     1  UNL1        0.0815
     28 C         140.5740  142.6400  168.7983 C.3     1  UNL1        0.1247
     29 C         141.3891  141.3873  168.6713 C.2     1  UNL1        0.2207
     30 N         141.9801  140.6907  167.4816 N.2     1  UNL1       -0.0374
@<TRIPOS>BOND
     1    12    13   ar
     2    13    14   ar
     3    14    15   ar
     4    15    16   ar
     5    16    17   ar
     6    17     7    1
     7     7     8   ar
     8     8     9   ar
     9     9    10   ar
    10    10     1    1
    11     1     2    1
    12     2     3    1
    13     3     4    1
    14     4    21    1
    15    21    22    1
    16    22    23    2
    17    23    24    1
    18    24    25    2
    19    25    26    1
    20    26    27    2
    21    27    28    1
    22    28    29    1
    23    29    30    2
    24     4     5    1
    25     5     6    1
    26    10    11   ar
    27    17    18   ar
    28    18    19   ar
    29    19    20   ar
    30    20    12   ar
    31    19    15   ar
    32    11     7   ar
    33     6     1    1
    34    30    22    1
    35    29    24    1
@<TRIPOS>MOLECULE
*****
 30 35 0 0 0
SMALL
GASTEIGER

@<TRIPOS>ATOM
      1 C         138.6275  139.3169  162.6620 C.3     1  UNL1        0.0493
      2 C         138.9613  138.0300  163.3567 C.3     1  UNL1        0.0238
      3 C         138.8525  137.9335  164.8497 C.3     1  UNL1        0.0730
      4 N         138.4099  139.1238  165.6480 N.3     1  UNL1       -0.2623
      5 C         138.0761  140.4107  164.9532 C.3     1  UNL1        0.0730
      6 C         138.1848  140.5072  163.4603 C.3     1  UNL1        0.0238
      7 C         138.4306  140.1439  158.8749 C.ar    1  UNL1        0.1224
      8 C         139.3768  138.9799  158.8685 C.ar    1  UNL1        0.0587
      9 S         139.5657  138.5285  160.2865 S.2     1  UNL1       -0.0701
     10 C         138.7363  139.4134  161.1691 C.ar    1  UNL1        0.0880
     11 N         138.0348  140.4118  160.2966 N.ar    1  UNL1       -0.2396
     12 C         136.7127  144.0310  154.0227 C.ar    1  UNL1        0.0002
     13 C         136.1498  142.7677  153.4419 C.ar    1  UNL1        0.0031
     14 C         136.2738  141.4760  154.1943 C.ar    1  UNL1        0.0375
     15 C         136.9607  141.4475  155.5274 C.ar    1  UNL1        0.1454
     16 O         137.2320  140.3322  156.4931 O.2     1  UNL1       -0.4520
     17 C         137.9625  140.9062  157.6708 C.ar    1  UNL1        0.1633
     18 C         138.1427  142.3762  157.4330 C.ar    1  UNL1        0.0421
     19 C         137.5235  142.7107  156.1083 C.ar    1  UNL1        0.0376
     20 C         137.3995  144.0025  155.3559 C.ar    1  UNL1        0.0031
     21 C         138.3011  139.0273  167.1409 C.3     1  UNL1        0.1976
     22 C         139.1964  139.8564  168.0132 C.2     1  UNL1        0.3676
     23 N         139.2189  139.8491  169.5130 N.2     1  UNL1       -0.0320
     24 C         140.2628  140.8266  169.9656 C.2     1  UNL1        0.2508
     25 C         140.7269  141.2389  171.3311 C.2     1  UNL1        0.1485
     26 N         141.8135  142.2627  171.4766 N.2     1  UNL1       -0.2425
     27 C         142.4360  142.8741  170.2565 C.2     1  UNL1        0.0815
     28 C         141.9720  142.4617  168.8910 C.3     1  UNL1        0.1247
     29 C         140.8854  141.4380  168.7456 C.2     1  UNL1        0.2207
     30 N         140.2263  140.8384  167.5389 N.2     1  UNL1       -0.0374
@<TRIPOS>BOND
     1    12    13   ar
     2    13    14   ar
     3    14    15   ar
     4    15    16   ar
     5    16    17   ar
     6    17     7    1
     7     7     8   ar
     8     8     9   ar
     9     9    10   ar
    10    10     1    1
    11     1     2    1
    12     2     3    1
    13     3     4    1
    14     4    21    1
    15    21    22    1
    16    22    23    2
    17    23    24    1
    18    24    25    2
    19    25    26    1
    20    26    27    2
    21    27    28    1
    22    28    29    1
    23    29    30    2
    24     4     5    1
    25     5     6    1
    26    10    11   ar
    27    17    18   ar
    28    18    19   ar
    29    19    20   ar
    30    20    12   ar
    31    19    15   ar
    32    11     7   ar
    33     6     1    1
    34    30    22    1
    35    29    24    1
@<TRIPOS>MOLECULE
*****
 30 35 0 0 0
SMALL
GASTEIGER

@<TRIPOS>ATOM
      1 C         140.6145  138.7749  160.8211 C.3     1  UNL1        0.0493
      2 C         139.9565  138.8632  159.4760 C.3     1  UNL1        0.0238
      3 C         140.6659  138.3481  158.2588 C.3     1  UNL1        0.0730
      4 N         142.0333  137.7447  158.3867 N.3     1  UNL1       -0.2623
      5 C         142.6913  137.6565  159.7319 C.3     1  UNL1        0.0730
      6 C         141.9819  138.1716  160.9490 C.3     1  UNL1        0.0238
      7 C         139.4678  140.1226  164.2756 C.ar    1  UNL1        0.1224
      8 C         138.1592  140.0428  163.5468 C.ar    1  UNL1        0.0587
      9 S         138.4296  139.5282  162.1640 S.2     1  UNL1       -0.0701
     10 C         139.9052  139.2900  162.0382 C.ar    1  UNL1        0.0880
     11 N         140.5469  139.6574  163.3434 N.ar    1  UNL1       -0.2396
     12 C         140.0335  141.4493  170.5625 C.ar    1  UNL1        0.0002
     13 C         140.5704  142.7564  170.0594 C.ar    1  UNL1        0.0031
     14 C         140.6697  143.0084  168.5840 C.ar    1  UNL1        0.0375
     15 C         140.2321  141.9533  167.6118 C.ar    1  UNL1        0.1454
     16 O         140.2123  141.9163  166.1124 O.2     1  UNL1       -0.4520
     17 C         139.6631  140.5862  165.6888 C.ar    1  UNL1        0.1633
     18 C         139.3436  139.8012  166.9264 C.ar    1  UNL1        0.0421
     19 C         139.6953  140.6462  168.1149 C.ar    1  UNL1        0.0376
     20 C         139.5959  140.3942  169.5902 C.ar    1  UNL1        0.0031
     21 C         142.7427  137.2296  157.1696 C.3     1  UNL1        0.1976
     22 C         142.6032  135.7896  156.7735 C.2     1  UNL1        0.3676
     23 N         143.3219  134.6301  157.3970 N.2     1  UNL1       -0.0320
     24 C         142.8834  133.3802  156.6931 C.2     1  UNL1        0.2508
     25 C         143.2575  131.9396  156.8793 C.2     1  UNL1        0.1485
     26 N         142.6418  130.8860  156.0069 N.2     1  UNL1       -0.2425
     27 C         141.6520  131.2731  154.9484 C.2     1  UNL1        0.0815
     28 C         141.2780  132.7137  154.7623 C.3     1  UNL1        0.1247
     29 C         141.8936  133.7672  155.6345 C.2     1  UNL1        0.2207
     30 N         141.7205  135.2564  155.6842 N.2     1  UNL1       -0.0374
@<TRIPOS>BOND
     1    12    13   ar
     2    13    14   ar
     3    14    15   ar
     4    15    16   ar
     5    16    17   ar
     6    17     7    1
     7     7     8   ar
     8     8     9   ar
     9     9    10   ar
    10    10     1    1
    11     1     2    1
    12     2     3    1
    13     3     4    1
    14     4    21    1
    15    21    22    1
    16    22    23    2
    17    23    24    1
    18    24    25    2
    19    25    26    1
    20    26    27    2
    21    27    28    1
    22    28    29    1
    23    29    30    2
    24     4     5    1
    25     5     6    1
    26    10    11   ar
    27    17    18   ar
    28    18    19   ar
    29    19    20   ar
    30    20    12   ar
    31    19    15   ar
    32    11     7   ar
    33     6     1    1
    34    30    22    1
    35    29    24    1
@<TRIPOS>MOLECULE
*****
 30 35 0 0 0
SMALL
GASTEIGER

@<TRIPOS>ATOM
      1 C         143.3133  139.4867  161.1063 C.3     1  UNL1        0.0493
      2 C         142.7739  138.1072  160.8696 C.3     1  UNL1        0.0238
      3 C         142.6667  137.5735  159.4718 C.3     1  UNL1        0.0730
      4 N         143.0988  138.4193  158.3108 N.3     1  UNL1       -0.2623
      5 C         143.6382  139.7989  158.5475 C.3     1  UNL1        0.0730
      6 C         143.7454  140.3326  159.9453 C.3     1  UNL1        0.0238
      7 C         142.8577  140.6985  164.7653 C.ar    1  UNL1        0.1224
      8 C         144.3135  140.9849  164.5444 C.ar    1  UNL1        0.0587
      9 S         144.6613  140.5658  163.1467 S.2     1  UNL1       -0.0701
     10 C         143.4205  140.0204  162.5040 C.ar    1  UNL1        0.0880
     11 N         142.3058  140.1025  163.5044 N.ar    1  UNL1       -0.2396
     12 C         139.2576  141.1457  170.0986 C.ar    1  UNL1        0.0002
     13 C         139.8900  142.5020  170.2008 C.ar    1  UNL1        0.0031
     14 C         140.8720  142.9520  169.1601 C.ar    1  UNL1        0.0375
     15 C         141.2217  142.0457  168.0172 C.ar    1  UNL1        0.1454
     16 O         142.1484  142.2142  166.8498 O.2     1  UNL1       -0.4520
     17 C         142.0888  140.9620  166.0261 C.ar    1  UNL1        0.1633
     18 C         141.1253  140.0196  166.6844 C.ar    1  UNL1        0.0421
     19 C         140.5894  140.6894  167.9151 C.ar    1  UNL1        0.0376
     20 C         139.6074  140.2393  168.9558 C.ar    1  UNL1        0.0031
     21 C         142.9915  137.8856  156.9131 C.3     1  UNL1        0.1976
     22 C         142.8053  136.4149  156.6841 C.2     1  UNL1        0.3676
     23 N         141.7895  135.7854  155.7776 N.2     1  UNL1       -0.0320
     24 C         141.9587  134.2969  155.8547 C.2     1  UNL1        0.2508
     25 C         141.2372  133.1685  155.1793 C.2     1  UNL1        0.1485
     26 N         141.6362  131.7496  155.4581 N.2     1  UNL1       -0.2425
     27 C         142.7566  131.4593  156.4121 C.2     1  UNL1        0.0815
     28 C         143.4781  132.5878  157.0875 C.3     1  UNL1        0.1247
     29 C         143.0791  134.0065  156.8088 C.2     1  UNL1        0.2207
     30 N         143.6024  135.3155  157.3213 N.2     1  UNL1       -0.0374
@<TRIPOS>BOND
     1    12    13   ar
     2    13    14   ar
     3    14    15   ar
     4    15    16   ar
     5    16    17   ar
     6    17     7    1
     7     7     8   ar
     8     8     9   ar
     9     9    10   ar
    10    10     1    1
    11     1     2    1
    12     2     3    1
    13     3     4    1
    14     4    21    1
    15    21    22    1
    16    22    23    2
    17    23    24    1
    18    24    25    2
    19    25    26    1
    20    26    27    2
    21    27    28    1
    22    28    29    1
    23    29    30    2
    24     4     5    1
    25     5     6    1
    26    10    11   ar
    27    17    18   ar
    28    18    19   ar
    29    19    20   ar
    30    20    12   ar
    31    19    15   ar
    32    11     7   ar
    33     6     1    1
    34    30    22    1
    35    29    24    1
@<TRIPOS>MOLECULE
*****
 30 35 0 0 0
SMALL
GASTEIGER

@<TRIPOS>ATOM
      1 C         138.4339  138.1066  154.8057 C.3     1  UNL1        0.0493
      2 C         137.0700  137.8512  154.2360 C.3     1  UNL1        0.0238
      3 C         135.9683  138.8459  154.4528 C.3     1  UNL1        0.0730
      4 N         136.2305  140.0959  155.2393 N.3     1  UNL1       -0.2623
      5 C         137.5945  140.3513  155.8090 C.3     1  UNL1        0.0730
      6 C         138.6962  139.3567  155.5921 C.3     1  UNL1        0.0238
      7 C         141.1638  135.3522  154.9661 C.ar    1  UNL1        0.1224
      8 C         141.2979  135.8106  153.5442 C.ar    1  UNL1        0.0587
      9 S         140.2915  136.8983  153.3110 S.2     1  UNL1       -0.0701
     10 C         139.5356  137.1120  154.5888 C.ar    1  UNL1        0.0880
     11 N         140.0747  136.1564  155.6118 N.ar    1  UNL1       -0.2396
     12 C         144.1738  130.2434  157.5048 C.ar    1  UNL1        0.0002
     13 C         145.0936  131.2857  158.0684 C.ar    1  UNL1        0.0031
     14 C         144.8499  132.7370  157.7783 C.ar    1  UNL1        0.0375
     15 C         143.6864  133.1462  156.9246 C.ar    1  UNL1        0.1454
     16 O         143.1980  134.4898  156.4706 O.2     1  UNL1       -0.4520
     17 C         141.9762  134.2780  155.6265 C.ar    1  UNL1        0.1633
     18 C         141.7096  132.8034  155.5587 C.ar    1  UNL1        0.0421
     19 C         142.7666  132.1039  156.3610 C.ar    1  UNL1        0.0376
     20 C         143.0103  130.6526  156.6511 C.ar    1  UNL1        0.0031
     21 C         135.1289  141.0906  155.4562 C.3     1  UNL1        0.1976
     22 C         133.7966  140.6335  155.9720 C.2     1  UNL1        0.3676
     23 N         132.4584  141.1618  155.5477 N.2     1  UNL1       -0.0320
     24 C         131.4034  140.4226  156.3162 C.2     1  UNL1        0.2508
     25 C         129.9065  140.5193  156.3133 C.2     1  UNL1        0.1485
     26 N         129.0958  139.6309  157.2098 N.2     1  UNL1       -0.2425
     27 C         129.7820  138.6459  158.1090 C.2     1  UNL1        0.0815
     28 C         131.2789  138.5492  158.1119 C.3     1  UNL1        0.1247
     29 C         132.0896  139.4376  157.2156 C.2     1  UNL1        0.2207
     30 N         133.5686  139.5679  157.0028 N.2     1  UNL1       -0.0374
@<TRIPOS>BOND
     1    12    13   ar
     2    13    14   ar
     3    14    15   ar
     4    15    16   ar
     5    16    17   ar
     6    17     7    1
     7     7     8   ar
     8     8     9   ar
     9     9    10   ar
    10    10     1    1
    11     1     2    1
    12     2     3    1
    13     3     4    1
    14     4    21    1
    15    21    22    1
    16    22    23    2
    17    23    24    1
    18    24    25    2
    19    25    26    1
    20    26    27    2
    21    27    28    1
    22    28    29    1
    23    29    30    2
    24     4     5    1
    25     5     6    1
    26    10    11   ar
    27    17    18   ar
    28    18    19   ar
    29    19    20   ar
    30    20    12   ar
    31    19    15   ar
    32    11     7   ar
    33     6     1    1
    34    30    22    1
    35    29    24    1
@<TRIPOS>MOLECULE
*****
 30 35 0 0 0
SMALL
GASTEIGER

@<TRIPOS>ATOM
      1 C         139.2293  141.5483  160.0657 C.3     1  UNL1        0.0493
      2 C         138.8615  142.7434  159.2372 C.3     1  UNL1        0.0238
      3 C         138.1181  142.5616  157.9471 C.3     1  UNL1        0.0730
      4 N         137.7424  141.1846  157.4855 N.3     1  UNL1       -0.2623
      5 C         138.1103  139.9895  158.3142 C.3     1  UNL1        0.0730
      6 C         138.8537  140.1713  159.6042 C.3     1  UNL1        0.0238
      7 C         140.4910  141.8535  163.7236 C.ar    1  UNL1        0.1224
      8 C         141.7426  142.1664  162.9583 C.ar    1  UNL1        0.0587
      9 S         141.4222  142.0901  161.4948 S.2     1  UNL1       -0.0701
     10 C         139.9728  141.7301  161.3557 C.ar    1  UNL1        0.0880
     11 N         139.3972  141.5839  162.7333 N.ar    1  UNL1       -0.2396
     12 C         140.1341  142.4134  170.1394 C.ar    1  UNL1        0.0002
     13 C         139.7013  140.9792  170.0652 C.ar    1  UNL1        0.0031
     14 C         139.6012  140.2939  168.7346 C.ar    1  UNL1        0.0375
     15 C         139.9338  141.0429  167.4783 C.ar    1  UNL1        0.1454
     16 O         139.9277  140.6347  166.0350 O.2     1  UNL1       -0.4520
     17 C         140.3568  141.8167  165.2171 C.ar    1  UNL1        0.1633
     18 C         140.6280  142.9555  166.1551 C.ar    1  UNL1        0.0421
     19 C         140.3666  142.4772  167.5526 C.ar    1  UNL1        0.0376
     20 C         140.4668  143.1624  168.8831 C.ar    1  UNL1        0.0031
     21 C         136.9990  141.0028  156.1955 C.3     1  UNL1        0.1976
     22 C         135.5080  140.8392  156.2058 C.2     1  UNL1        0.3676
     23 N         134.5306  141.6104  155.3691 N.2     1  UNL1       -0.0320
     24 C         133.1512  141.1235  155.7008 C.2     1  UNL1        0.2508
     25 C         131.7975  141.5179  155.1889 C.2     1  UNL1        0.1485
     26 N         130.5686  140.8402  155.7187 N.2     1  UNL1       -0.2425
     27 C         130.6935  139.7682  156.7603 C.2     1  UNL1        0.0815
     28 C         132.0471  139.3738  157.2722 C.3     1  UNL1        0.1247
     29 C         133.2759  140.0515  156.7425 C.2     1  UNL1        0.2207
     30 N         134.7325  139.8758  157.0546 N.2     1  UNL1       -0.0374
@<TRIPOS>BOND
     1    12    13   ar
     2    13    14   ar
     3    14    15   ar
     4    15    16   ar
     5    16    17   ar
     6    17     7    1
     7     7     8   ar
     8     8     9   ar
     9     9    10   ar
    10    10     1    1
    11     1     2    1
    12     2     3    1
    13     3     4    1
    14     4    21    1
    15    21    22    1
    16    22    23    2
    17    23    24    1
    18    24    25    2
    19    25    26    1
    20    26    27    2
    21    27    28    1
    22    28    29    1
    23    29    30    2
    24     4     5    1
    25     5     6    1
    26    10    11   ar
    27    17    18   ar
    28    18    19   ar
    29    19    20   ar
    30    20    12   ar
    31    19    15   ar
    32    11     7   ar
    33     6     1    1
    34    30    22    1
    35    29    24    1
@<TRIPOS>MOLECULE
*****
 30 35 0 0 0
SMALL
GASTEIGER

@<TRIPOS>ATOM
      1 C         141.9088  140.0035  160.2994 C.3     1  UNL1        0.0493
      2 C         143.1468  139.8813  159.4613 C.3     1  UNL1        0.0238
      3 C         143.1071  139.1160  158.1717 C.3     1  UNL1        0.0730
      4 N         141.8293  138.4729  157.7204 N.3     1  UNL1       -0.2623
      5 C         140.5913  138.5951  158.5585 C.3     1  UNL1        0.0730
      6 C         140.6310  139.3604  159.8480 C.3     1  UNL1        0.0238
      7 C         141.5753  141.4267  163.8949 C.ar    1  UNL1        0.1224
      8 C         142.4443  142.4662  163.2513 C.ar    1  UNL1        0.0587
      9 S         142.6750  142.0595  161.8260 S.2     1  UNL1       -0.0701
     10 C         141.9486  140.7688  161.5888 C.ar    1  UNL1        0.0880
     11 N         141.2689  140.3777  162.8676 N.ar    1  UNL1       -0.2396
     12 C         139.8266  142.1439  170.0620 C.ar    1  UNL1        0.0002
     13 C         139.2353  140.7788  169.8706 C.ar    1  UNL1        0.0031
     14 C         139.3542  140.0891  168.5439 C.ar    1  UNL1        0.0375
     15 C         140.0643  140.7647  167.4084 C.ar    1  UNL1        0.1454
     16 O         140.3368  140.3351  165.9973 O.2     1  UNL1       -0.4520
     17 C         141.0966  141.4348  165.3165 C.ar    1  UNL1        0.1633
     18 C         141.2936  142.5440  166.3069 C.ar    1  UNL1        0.0421
     19 C         140.6557  142.1298  167.5998 C.ar    1  UNL1        0.0376
     20 C         140.5368  142.8195  168.9265 C.ar    1  UNL1        0.0031
     21 C         141.7895  137.7076  156.4309 C.3     1  UNL1        0.1976
     22 C         142.0692  136.2339  156.4245 C.2     1  UNL1        0.3676
     23 N         143.1178  135.5319  157.2354 N.2     1  UNL1       -0.0320
     24 C         143.0459  134.0676  156.9181 C.2     1  UNL1        0.2508
     25 C         143.8346  132.8929  157.4160 C.2     1  UNL1        0.1485
     26 N         143.5302  131.5151  156.9069 N.2     1  UNL1       -0.2425
     27 C         142.4371  131.3122  155.9000 C.2     1  UNL1        0.0815
     28 C         141.6485  132.4869  155.4021 C.3     1  UNL1        0.1247
     29 C         141.9529  133.8646  155.9111 C.2     1  UNL1        0.2207
     30 N         141.3492  135.2034  155.6061 N.2     1  UNL1       -0.0374
@<TRIPOS>BOND
     1    12    13   ar
     2    13    14   ar
     3    14    15   ar
     4    15    16   ar
     5    16    17   ar
     6    17     7    1
     7     7     8   ar
     8     8     9   ar
     9     9    10   ar
    10    10     1    1
    11     1     2    1
    12     2     3    1
    13     3     4    1
    14     4    21    1
    15    21    22    1
    16    22    23    2
    17    23    24    1
    18    24    25    2
    19    25    26    1
    20    26    27    2
    21    27    28    1
    22    28    29    1
    23    29    30    2
    24     4     5    1
    25     5     6    1
    26    10    11   ar
    27    17    18   ar
    28    18    19   ar
    29    19    20   ar
    30    20    12   ar
    31    19    15   ar
    32    11     7   ar
    33     6     1    1
    34    30    22    1
    35    29    24    1
@<TRIPOS>MOLECULE
*****
 30 35 0 0 0
SMALL
GASTEIGER

@<TRIPOS>ATOM
      1 C         139.0678  142.3986  159.4960 C.3     1  UNL1        0.0493
      2 C         138.9574  143.1909  158.2271 C.3     1  UNL1        0.0238
      3 C         138.1804  142.6437  157.0664 C.3     1  UNL1        0.0730
      4 N         137.5139  141.3042  157.1748 N.3     1  UNL1       -0.2623
      5 C         137.6243  140.5120  158.4438 C.3     1  UNL1        0.0730
      6 C         138.4013  141.0592  159.6043 C.3     1  UNL1        0.0238
      7 C         140.7810  143.2343  162.8770 C.ar    1  UNL1        0.1224
      8 C         141.2995  144.3415  162.0080 C.ar    1  UNL1        0.0587
      9 S         140.7207  144.1632  160.6356 S.2     1  UNL1       -0.0701
     10 C         139.8447  142.9458  160.6566 C.ar    1  UNL1        0.0880
     11 N         139.8819  142.3717  162.0419 N.ar    1  UNL1       -0.2396
     12 C         141.4532  142.5012  169.2501 C.ar    1  UNL1        0.0002
     13 C         142.8749  142.1894  168.8877 C.ar    1  UNL1        0.0031
     14 C         143.3054  142.2138  167.4510 C.ar    1  UNL1        0.0375
     15 C         142.3141  142.5499  166.3766 C.ar    1  UNL1        0.1454
     16 O         142.4454  142.6515  164.8859 O.2     1  UNL1       -0.4520
     17 C         141.1048  143.0261  164.3269 C.ar    1  UNL1        0.1633
     18 C         140.1449  143.1560  165.4721 C.ar    1  UNL1        0.0421
     19 C         140.8923  142.8617  166.7390 C.ar    1  UNL1        0.0376
     20 C         140.4618  142.8374  168.1757 C.ar    1  UNL1        0.0031
     21 C         136.7370  140.7570  156.0142 C.3     1  UNL1        0.1976
     22 C         135.2390  140.7066  156.0715 C.2     1  UNL1        0.3676
     23 N         134.4200  139.8213  156.9634 N.2     1  UNL1       -0.0320
     24 C         132.9717  140.1003  156.6900 C.2     1  UNL1        0.2508
     25 C         131.7124  139.5278  157.2700 C.2     1  UNL1        0.1485
     26 N         130.3770  140.0131  156.7892 N.2     1  UNL1       -0.2425
     27 C         130.3009  141.0707  155.7284 C.2     1  UNL1        0.0815
     28 C         131.5602  141.6432  155.1484 C.3     1  UNL1        0.1247
     29 C         132.8956  141.1580  155.6292 C.2     1  UNL1        0.2207
     30 N         134.2968  141.5328  155.2469 N.2     1  UNL1       -0.0374
@<TRIPOS>BOND
     1    12    13   ar
     2    13    14   ar
     3    14    15   ar
     4    15    16   ar
     5    16    17   ar
     6    17     7    1
     7     7     8   ar
     8     8     9   ar
     9     9    10   ar
    10    10     1    1
    11     1     2    1
    12     2     3    1
    13     3     4    1
    14     4    21    1
    15    21    22    1
    16    22    23    2
    17    23    24    1
    18    24    25    2
    19    25    26    1
    20    26    27    2
    21    27    28    1
    22    28    29    1
    23    29    30    2
    24     4     5    1
    25     5     6    1
    26    10    11   ar
    27    17    18   ar
    28    18    19   ar
    29    19    20   ar
    30    20    12   ar
    31    19    15   ar
    32    11     7   ar
    33     6     1    1
    34    30    22    1
    35    29    24    1
