@<TRIPOS>MOLECULE
*****
 36 40 0 0 0
SMALL
GASTEIGER

@<TRIPOS>ATOM
      1 C         139.5765  139.7423  165.8131 C.3     1  UNL1        0.2308
      2 N         138.5698  138.6404  165.9632 N.2     1  UNL1       -0.0614
      3 C         138.0535  138.6729  167.3712 C.2     1  UNL1        0.3157
      4 N         137.0294  137.7462  167.9564 N.pl3   1  UNL1       -0.2464
      5 C         138.7411  139.7949  168.0912 C.ar    1  UNL1        0.1094
      6 C         138.6316  140.3001  169.4993 C.ar    1  UNL1        0.1470
      7 F         137.6904  139.6393  170.4623 F       1  UNL1       -0.2039
      8 C         139.4635  141.4663  169.9444 C.ar    1  UNL1        0.0299
      9 C         140.4047  142.1271  168.9815 C.ar    1  UNL1        0.0021
     10 C         140.5141  141.6219  167.5734 C.ar    1  UNL1        0.0008
     11 C         139.6823  140.4558  167.1283 C.ar    1  UNL1        0.0390
     12 H         136.6332  137.0365  167.4009 H       1  UNL1        0.2884
     13 H         136.7535  137.8477  168.8960 H       1  UNL1        0.2884
     14 C         139.9045  138.2264  161.5888 C.ar    1  UNL1        0.1442
     15 C         138.5643  138.5992  162.1499 C.ar    1  UNL1        0.0126
     16 C         137.3334  138.4667  161.3029 C.3     1  UNL1        0.0342
     17 C         138.4550  139.1045  163.5580 C.ar    1  UNL1       -0.0008
     18 C         139.6858  139.2370  164.4050 C.ar    1  UNL1        0.0302
     19 C         141.0260  138.8642  163.8439 C.ar    1  UNL1        0.0137
     20 C         141.1354  138.3589  162.4358 C.ar    1  UNL1        0.1018
     21 C         140.2143  138.6870  159.0507 C.3     1  UNL1        0.2525
     22 O         140.0139  137.7211  160.1807 O.3     1  UNL1       -0.4711
     23 C         142.4756  137.9861  161.8747 C.1     1  UNL1        0.1035
     24 N         143.8158  137.6132  161.3136 N.1     1  UNL1       -0.1907
     25 C         140.6060  140.7385  165.3686 C.ar    1  UNL1        0.0297
     26 C         141.9981  140.6767  165.9236 C.ar    1  UNL1        0.0004
     27 C         143.0277  141.6730  165.4791 C.ar    1  UNL1       -0.0002
     28 C         142.6650  142.7310  164.4795 C.ar    1  UNL1        0.0001
     29 C         141.2728  142.7928  163.9245 C.ar    1  UNL1        0.0028
     30 C         140.2433  141.7966  164.3690 C.ar    1  UNL1        0.0005
     31 C         140.9102  143.8508  162.9250 C.ar    1  UNL1        0.0384
     32 C         141.8439  144.1658  161.7941 C.ar    1  UNL1        0.1022
     33 N         141.4813  145.2238  160.7945 N.ar    1  UNL1       -0.2224
     34 C         140.1849  145.9668  160.9258 C.ar    1  UNL1        0.1989
     35 N         139.2512  145.6518  162.0568 N.ar    1  UNL1       -0.2224
     36 C         139.6137  144.5938  163.0563 C.ar    1  UNL1        0.1022
@<TRIPOS>BOND
     1    21    22    1
     2    22    14    1
     3    14    15   ar
     4    15    16    1
     5    15    17   ar
     6    17    18   ar
     7    18     1    1
     8     1    25    1
     9    25    26   ar
    10    26    27   ar
    11    27    28   ar
    12    28    29   ar
    13    29    31    1
    14    31    32   ar
    15    32    33   ar
    16    33    34   ar
    17    34    35   ar
    18    35    36   ar
    19    29    30   ar
    20     1     2    1
    21     2     3    2
    22     3     4    1
    23     3     5    1
    24     5     6   ar
    25     6     7    1
    26     6     8   ar
    27     8     9   ar
    28     9    10   ar
    29    10    11   ar
    30    18    19   ar
    31    19    20   ar
    32    20    23    1
    33    23    24    3
    34    20    14   ar
    35    11     1    1
    36    30    25   ar
    37    11     5   ar
    38    36    31   ar
    39     4    12    1
    40     4    13    1
@<TRIPOS>MOLECULE
*****
 36 40 0 0 0
SMALL
GASTEIGER

@<TRIPOS>ATOM
      1 C         140.2964  140.0639  167.3035 C.3     1  UNL1        0.2308
      2 N         138.9054  139.9385  167.8507 N.2     1  UNL1       -0.0614
      3 C         138.9833  140.0502  169.3445 C.2     1  UNL1        0.3157
      4 N         137.8254  139.9798  170.2955 N.pl3   1  UNL1       -0.2464
      5 C         140.4223  140.2446  169.7205 C.ar    1  UNL1        0.1094
      6 C         141.0985  140.4151  171.0485 C.ar    1  UNL1        0.1470
      7 F         140.2870  140.4066  172.3100 F       1  UNL1       -0.2039
      8 C         142.5863  140.5940  171.1150 C.ar    1  UNL1        0.0299
      9 C         143.3979  140.6024  169.8535 C.ar    1  UNL1        0.0021
     10 C         142.7216  140.4320  168.5255 C.ar    1  UNL1        0.0008
     11 C         141.2339  140.2531  168.4590 C.ar    1  UNL1        0.0390
     12 H         136.9125  139.8491  169.9507 H       1  UNL1        0.2884
     13 H         137.9783  140.0642  171.2644 H       1  UNL1        0.2884
     14 C         138.2675  139.5524  163.3195 C.ar    1  UNL1        0.1442
     15 C         138.7729  138.3519  164.0633 C.ar    1  UNL1        0.0126
     16 C         138.6020  136.9809  163.4792 C.3     1  UNL1        0.0342
     17 C         139.4492  138.5224  165.3913 C.ar    1  UNL1       -0.0008
     18 C         139.6201  139.8934  165.9754 C.ar    1  UNL1        0.0302
     19 C         139.1147  141.0939  165.2316 C.ar    1  UNL1        0.0137
     20 C         138.4384  140.9234  163.9036 C.ar    1  UNL1        0.1018
     21 C         138.4016  139.3996  160.7294 C.3     1  UNL1        0.2525
     22 O         137.5912  139.3819  161.9914 O.3     1  UNL1       -0.4711
     23 C         137.9330  142.1239  163.1597 C.1     1  UNL1        0.1035
     24 N         137.4276  143.3244  162.4157 N.1     1  UNL1       -0.1907
     25 C         141.5459  140.1536  166.4786 C.ar    1  UNL1        0.0297
     26 C         142.4557  138.9666  166.3638 C.ar    1  UNL1        0.0004
     27 C         143.7054  139.0564  165.5388 C.ar    1  UNL1       -0.0002
     28 C         144.0451  140.3332  164.8287 C.ar    1  UNL1        0.0001
     29 C         143.1353  141.5203  164.9434 C.ar    1  UNL1        0.0028
     30 C         141.8857  141.4305  165.7684 C.ar    1  UNL1        0.0005
     31 C         143.4750  142.7971  164.2333 C.ar    1  UNL1        0.0384
     32 C         143.7517  144.0429  165.0215 C.ar    1  UNL1        0.1022
     33 N         144.0915  145.3198  164.3115 N.ar    1  UNL1       -0.2224
     34 C         144.1545  145.3508  162.8132 C.ar    1  UNL1        0.1989
     35 N         143.8777  144.1049  162.0249 N.ar    1  UNL1       -0.2224
     36 C         143.5380  142.8281  162.7349 C.ar    1  UNL1        0.1022
@<TRIPOS>BOND
     1    21    22    1
     2    22    14    1
     3    14    15   ar
     4    15    16    1
     5    15    17   ar
     6    17    18   ar
     7    18     1    1
     8     1    25    1
     9    25    26   ar
    10    26    27   ar
    11    27    28   ar
    12    28    29   ar
    13    29    31    1
    14    31    32   ar
    15    32    33   ar
    16    33    34   ar
    17    34    35   ar
    18    35    36   ar
    19    29    30   ar
    20     1     2    1
    21     2     3    2
    22     3     4    1
    23     3     5    1
    24     5     6   ar
    25     6     7    1
    26     6     8   ar
    27     8     9   ar
    28     9    10   ar
    29    10    11   ar
    30    18    19   ar
    31    19    20   ar
    32    20    23    1
    33    23    24    3
    34    20    14   ar
    35    11     1    1
    36    30    25   ar
    37    11     5   ar
    38    36    31   ar
    39     4    12    1
    40     4    13    1
@<TRIPOS>MOLECULE
*****
 36 40 0 0 0
SMALL
GASTEIGER

@<TRIPOS>ATOM
      1 C         142.4992  143.1939  159.8307 C.3     1  UNL1        0.2308
      2 N         141.9635  143.8313  158.5829 N.2     1  UNL1       -0.0614
      3 C         141.0266  144.9300  158.9892 C.2     1  UNL1        0.3157
      4 N         140.2665  145.8292  158.0599 N.pl3   1  UNL1       -0.2464
      5 C         140.9833  144.9717  160.4880 C.ar    1  UNL1        0.1094
      6 C         140.2327  145.8481  161.4464 C.ar    1  UNL1        0.1470
      7 F         139.3227  146.9210  160.9264 F       1  UNL1       -0.2039
      8 C         140.3923  145.6514  162.9249 C.ar    1  UNL1        0.0299
      9 C         141.3023  144.5784  163.4449 C.ar    1  UNL1        0.0021
     10 C         142.0529  143.7021  162.4865 C.ar    1  UNL1        0.0008
     11 C         141.8934  143.8987  161.0081 C.ar    1  UNL1        0.0390
     12 H         140.3614  145.7237  157.0857 H       1  UNL1        0.2884
     13 H         139.6728  146.5249  158.4242 H       1  UNL1        0.2884
     14 C         144.7509  140.5649  156.9553 C.ar    1  UNL1        0.1442
     15 C         145.2889  141.9188  157.3124 C.ar    1  UNL1        0.0126
     16 C         146.5774  142.3963  156.7110 C.3     1  UNL1        0.0342
     17 C         144.5383  142.7951  158.2708 C.ar    1  UNL1       -0.0008
     18 C         143.2497  142.3175  158.8722 C.ar    1  UNL1        0.0302
     19 C         142.7118  140.9636  158.5150 C.ar    1  UNL1        0.0137
     20 C         143.4624  140.0873  157.5566 C.ar    1  UNL1        0.1018
     21 C         145.1828  139.7341  154.5317 C.3     1  UNL1        0.2525
     22 O         145.5015  139.6885  155.9968 O.3     1  UNL1       -0.4711
     23 C         142.9244  138.7334  157.1994 C.1     1  UNL1        0.1035
     24 N         142.3865  137.3795  156.8422 N.1     1  UNL1       -0.1907
     25 C         143.1917  142.3733  160.8780 C.ar    1  UNL1        0.0297
     26 C         144.5804  142.7335  161.3160 C.ar    1  UNL1        0.0004
     27 C         145.2730  141.9128  162.3634 C.ar    1  UNL1       -0.0002
     28 C         144.5769  140.7320  162.9727 C.ar    1  UNL1        0.0001
     29 C         143.1883  140.3719  162.5346 C.ar    1  UNL1        0.0028
     30 C         142.4957  141.1924  161.4873 C.ar    1  UNL1        0.0005
     31 C         142.4922  139.1911  163.1439 C.ar    1  UNL1        0.0384
     32 C         141.6647  138.2824  162.2839 C.ar    1  UNL1        0.1022
     33 N         140.9686  137.1016  162.8930 N.ar    1  UNL1       -0.2224
     34 C         141.0999  136.8295  164.3623 C.ar    1  UNL1        0.1989
     35 N         141.9274  137.7382  165.2223 N.ar    1  UNL1       -0.2224
     36 C         142.6235  138.9190  164.6132 C.ar    1  UNL1        0.1022
@<TRIPOS>BOND
     1    21    22    1
     2    22    14    1
     3    14    15   ar
     4    15    16    1
     5    15    17   ar
     6    17    18   ar
     7    18     1    1
     8     1    25    1
     9    25    26   ar
    10    26    27   ar
    11    27    28   ar
    12    28    29   ar
    13    29    31    1
    14    31    32   ar
    15    32    33   ar
    16    33    34   ar
    17    34    35   ar
    18    35    36   ar
    19    29    30   ar
    20     1     2    1
    21     2     3    2
    22     3     4    1
    23     3     5    1
    24     5     6   ar
    25     6     7    1
    26     6     8   ar
    27     8     9   ar
    28     9    10   ar
    29    10    11   ar
    30    18    19   ar
    31    19    20   ar
    32    20    23    1
    33    23    24    3
    34    20    14   ar
    35    11     1    1
    36    30    25   ar
    37    11     5   ar
    38    36    31   ar
    39     4    12    1
    40     4    13    1
@<TRIPOS>MOLECULE
*****
 36 40 0 0 0
SMALL
GASTEIGER

@<TRIPOS>ATOM
      1 C         141.9959  141.8709  166.8182 C.3     1  UNL1        0.2308
      2 N         141.5831  143.0550  167.6413 N.2     1  UNL1       -0.0614
      3 C         141.6108  142.6483  169.0848 C.2     1  UNL1        0.3157
      4 N         141.2687  143.5235  170.2541 N.pl3   1  UNL1       -0.2464
      5 C         142.0408  141.2129  169.1539 C.ar    1  UNL1        0.1094
      6 C         142.2463  140.2814  170.3115 C.ar    1  UNL1        0.1470
      7 F         142.0083  140.7619  171.7123 F       1  UNL1       -0.2039
      8 C         142.6898  138.8693  170.0681 C.ar    1  UNL1        0.0299
      9 C         142.9278  138.3888  168.6672 C.ar    1  UNL1        0.0021
     10 C         142.7223  139.3204  167.5097 C.ar    1  UNL1        0.0008
     11 C         142.2788  140.7324  167.7531 C.ar    1  UNL1        0.0390
     12 H         140.9956  144.4577  170.1064 H       1  UNL1        0.2884
     13 H         141.3172  143.1636  171.1692 H       1  UNL1        0.2884
     14 C         141.3794  144.6658  163.3457 C.ar    1  UNL1        0.1442
     15 C         142.7639  144.4002  163.8580 C.ar    1  UNL1        0.0126
     16 C         143.9429  145.0662  163.2128 C.3     1  UNL1        0.0342
     17 C         142.9694  143.4686  165.0155 C.ar    1  UNL1       -0.0008
     18 C         141.7904  142.8025  165.6607 C.ar    1  UNL1        0.0302
     19 C         140.4058  143.0681  165.1484 C.ar    1  UNL1        0.0137
     20 C         140.2003  143.9997  163.9909 C.ar    1  UNL1        0.1018
     21 C         141.1004  145.0541  160.7920 C.3     1  UNL1        0.2525
     22 O         141.1738  145.5974  162.1881 O.3     1  UNL1       -0.4711
     23 C         138.8157  144.2654  163.4785 C.1     1  UNL1        0.1035
     24 N         137.4312  144.5310  162.9662 N.1     1  UNL1       -0.1907
     25 C         142.3657  140.8815  165.7531 C.ar    1  UNL1        0.0297
     26 C         143.7815  140.4001  165.6357 C.ar    1  UNL1        0.0004
     27 C         144.1514  139.4108  164.5705 C.ar    1  UNL1       -0.0002
     28 C         143.1054  138.9028  163.6229 C.ar    1  UNL1        0.0001
     29 C         141.6896  139.3842  163.7404 C.ar    1  UNL1        0.0028
     30 C         141.3197  140.3736  164.8055 C.ar    1  UNL1        0.0005
     31 C         140.6436  138.8763  162.7928 C.ar    1  UNL1        0.0384
     32 C         139.3300  138.3810  163.3211 C.ar    1  UNL1        0.1022
     33 N         138.2840  137.8730  162.3736 N.ar    1  UNL1       -0.2224
     34 C         138.5516  137.8604  160.8977 C.ar    1  UNL1        0.1989
     35 N         139.8652  138.3558  160.3694 N.ar    1  UNL1       -0.2224
     36 C         140.9112  138.8637  161.3169 C.ar    1  UNL1        0.1022
@<TRIPOS>BOND
     1    21    22    1
     2    22    14    1
     3    14    15   ar
     4    15    16    1
     5    15    17   ar
     6    17    18   ar
     7    18     1    1
     8     1    25    1
     9    25    26   ar
    10    26    27   ar
    11    27    28   ar
    12    28    29   ar
    13    29    31    1
    14    31    32   ar
    15    32    33   ar
    16    33    34   ar
    17    34    35   ar
    18    35    36   ar
    19    29    30   ar
    20     1     2    1
    21     2     3    2
    22     3     4    1
    23     3     5    1
    24     5     6   ar
    25     6     7    1
    26     6     8   ar
    27     8     9   ar
    28     9    10   ar
    29    10    11   ar
    30    18    19   ar
    31    19    20   ar
    32    20    23    1
    33    23    24    3
    34    20    14   ar
    35    11     1    1
    36    30    25   ar
    37    11     5   ar
    38    36    31   ar
    39     4    12    1
    40     4    13    1
@<TRIPOS>MOLECULE
*****
 36 40 0 0 0
SMALL
GASTEIGER

@<TRIPOS>ATOM
      1 C         141.2819  138.8334  159.4378 C.3     1  UNL1        0.2308
      2 N         142.5102  138.0504  159.0801 N.2     1  UNL1       -0.0614
      3 C         142.4706  137.7738  157.6063 C.2     1  UNL1        0.3157
      4 N         143.5026  137.0179  156.8231 N.pl3   1  UNL1       -0.2464
      5 C         141.2178  138.3860  157.0533 C.ar    1  UNL1        0.1094
      6 C         140.6512  138.4317  155.6652 C.ar    1  UNL1        0.1470
      7 F         141.3859  137.7768  154.5332 F       1  UNL1       -0.2039
      8 C         139.3498  139.1322  155.4091 C.ar    1  UNL1        0.0299
      9 C         138.6151  139.7871  156.5411 C.ar    1  UNL1        0.0021
     10 C         139.1818  139.7414  157.9291 C.ar    1  UNL1        0.0008
     11 C         140.4831  139.0409  158.1852 C.ar    1  UNL1        0.0390
     12 H         144.2953  136.6519  157.2780 H       1  UNL1        0.2884
     13 H         143.3873  136.8877  155.8541 H       1  UNL1        0.2884
     14 C         142.9819  138.6962  163.6021 C.ar    1  UNL1        0.1442
     15 C         141.8184  137.8224  163.2379 C.ar    1  UNL1        0.0126
     16 C         141.2215  136.9029  164.2617 C.3     1  UNL1        0.0342
     17 C         141.2517  137.8682  161.8498 C.ar    1  UNL1       -0.0008
     18 C         141.8486  138.7877  160.8260 C.ar    1  UNL1        0.0302
     19 C         143.0121  139.6615  161.1902 C.ar    1  UNL1        0.0137
     20 C         143.5787  139.6158  162.5783 C.ar    1  UNL1        0.1018
     21 C         142.9965  139.5504  166.0557 C.3     1  UNL1        0.2525
     22 O         143.5486  138.6505  164.9902 O.3     1  UNL1       -0.4711
     23 C         144.7423  140.4896  162.9426 C.1     1  UNL1        0.1035
     24 N         145.9058  141.3633  163.3069 N.1     1  UNL1       -0.1907
     25 C         140.1720  139.6069  160.0858 C.ar    1  UNL1        0.0297
     26 C         138.9121  138.9063  160.5005 C.ar    1  UNL1        0.0004
     27 C         137.8022  139.6799  161.1485 C.ar    1  UNL1       -0.0002
     28 C         137.9523  141.1540  161.3818 C.ar    1  UNL1        0.0001
     29 C         139.2121  141.8546  160.9672 C.ar    1  UNL1        0.0028
     30 C         140.3220  141.0811  160.3192 C.ar    1  UNL1        0.0005
     31 C         139.3621  143.3287  161.2005 C.ar    1  UNL1        0.0384
     32 C         139.8831  144.2121  160.1059 C.ar    1  UNL1        0.1022
     33 N         140.0331  145.6863  160.3391 N.ar    1  UNL1       -0.2224
     34 C         139.6622  146.2770  161.6671 C.ar    1  UNL1        0.1989
     35 N         139.1412  145.3936  162.7617 N.ar    1  UNL1       -0.2224
     36 C         138.9912  143.9195  162.5285 C.ar    1  UNL1        0.1022
@<TRIPOS>BOND
     1    21    22    1
     2    22    14    1
     3    14    15   ar
     4    15    16    1
     5    15    17   ar
     6    17    18   ar
     7    18     1    1
     8     1    25    1
     9    25    26   ar
    10    26    27   ar
    11    27    28   ar
    12    28    29   ar
    13    29    31    1
    14    31    32   ar
    15    32    33   ar
    16    33    34   ar
    17    34    35   ar
    18    35    36   ar
    19    29    30   ar
    20     1     2    1
    21     2     3    2
    22     3     4    1
    23     3     5    1
    24     5     6   ar
    25     6     7    1
    26     6     8   ar
    27     8     9   ar
    28     9    10   ar
    29    10    11   ar
    30    18    19   ar
    31    19    20   ar
    32    20    23    1
    33    23    24    3
    34    20    14   ar
    35    11     1    1
    36    30    25   ar
    37    11     5   ar
    38    36    31   ar
    39     4    12    1
    40     4    13    1
@<TRIPOS>MOLECULE
*****
 36 40 0 0 0
SMALL
GASTEIGER

@<TRIPOS>ATOM
      1 C         142.4159  143.1754  159.8179 C.3     1  UNL1        0.2308
      2 N         141.8677  143.7865  158.5625 N.2     1  UNL1       -0.0614
      3 C         140.9474  144.9041  158.9547 C.2     1  UNL1        0.3157
      4 N         140.1820  145.7872  158.0142 N.pl3   1  UNL1       -0.2464
      5 C         140.9268  144.9838  160.4524 C.ar    1  UNL1        0.1094
      6 C         140.1988  145.8912  161.3993 C.ar    1  UNL1        0.1470
      7 F         139.2912  146.9596  160.8658 F       1  UNL1       -0.2039
      8 C         140.3785  145.7301  162.8798 C.ar    1  UNL1        0.0299
      9 C         141.2861  144.6616  163.4133 C.ar    1  UNL1        0.0021
     10 C         142.0140  143.7542  162.4664 C.ar    1  UNL1        0.0008
     11 C         141.8344  143.9153  160.9859 C.ar    1  UNL1        0.0390
     12 H         140.2614  145.6564  157.0417 H       1  UNL1        0.2884
     13 H         139.6003  146.4975  158.3695 H       1  UNL1        0.2884
     14 C         144.5997  140.4532  156.9770 C.ar    1  UNL1        0.1442
     15 C         143.2912  140.0233  157.5710 C.ar    1  UNL1        0.0126
     16 C         142.7105  138.6861  157.2180 C.3     1  UNL1        0.0342
     17 C         142.5632  140.9307  158.5179 C.ar    1  UNL1       -0.0008
     18 C         143.1439  142.2680  158.8709 C.ar    1  UNL1        0.0302
     19 C         144.4525  142.6978  158.2769 C.ar    1  UNL1        0.0137
     20 C         145.1804  141.7905  157.3300 C.ar    1  UNL1        0.1018
     21 C         145.0580  139.6272  154.5567 C.3     1  UNL1        0.2525
     22 O         145.3277  139.5458  156.0300 O.3     1  UNL1       -0.4711
     23 C         146.4890  142.2203  156.7360 C.1     1  UNL1        0.1035
     24 N         147.7976  142.6501  156.1420 N.1     1  UNL1       -0.1907
     25 C         143.1163  142.3746  160.8753 C.ar    1  UNL1        0.0297
     26 C         144.4920  142.7677  161.3257 C.ar    1  UNL1        0.0004
     27 C         145.1924  141.9668  162.3832 C.ar    1  UNL1       -0.0002
     28 C         144.5171  140.7729  162.9902 C.ar    1  UNL1        0.0001
     29 C         143.1413  140.3798  162.5398 C.ar    1  UNL1        0.0028
     30 C         142.4409  141.1806  161.4824 C.ar    1  UNL1        0.0005
     31 C         142.4660  139.1859  163.1468 C.ar    1  UNL1        0.0384
     32 C         142.7084  138.8380  164.5856 C.ar    1  UNL1        0.1022
     33 N         142.0331  137.6441  165.1927 N.ar    1  UNL1       -0.2224
     34 C         141.1153  136.7980  164.3609 C.ar    1  UNL1        0.1989
     35 N         140.8729  137.1460  162.9220 N.ar    1  UNL1       -0.2224
     36 C         141.5482  138.3398  162.3150 C.ar    1  UNL1        0.1022
@<TRIPOS>BOND
     1    21    22    1
     2    22    14    1
     3    14    15   ar
     4    15    16    1
     5    15    17   ar
     6    17    18   ar
     7    18     1    1
     8     1    25    1
     9    25    26   ar
    10    26    27   ar
    11    27    28   ar
    12    28    29   ar
    13    29    31    1
    14    31    32   ar
    15    32    33   ar
    16    33    34   ar
    17    34    35   ar
    18    35    36   ar
    19    29    30   ar
    20     1     2    1
    21     2     3    2
    22     3     4    1
    23     3     5    1
    24     5     6   ar
    25     6     7    1
    26     6     8   ar
    27     8     9   ar
    28     9    10   ar
    29    10    11   ar
    30    18    19   ar
    31    19    20   ar
    32    20    23    1
    33    23    24    3
    34    20    14   ar
    35    11     1    1
    36    30    25   ar
    37    11     5   ar
    38    36    31   ar
    39     4    12    1
    40     4    13    1
@<TRIPOS>MOLECULE
*****
 36 40 0 0 0
SMALL
GASTEIGER

@<TRIPOS>ATOM
      1 C         141.1780  142.0298  167.1844 C.3     1  UNL1        0.2308
      2 N         140.4991  143.1162  167.9646 N.2     1  UNL1       -0.0614
      3 C         140.4388  142.6870  169.4007 C.2     1  UNL1        0.3157
      4 N         139.8417  143.4717  170.5310 N.pl3   1  UNL1       -0.2464
      5 C         141.0804  141.3354  169.5079 C.ar    1  UNL1        0.1094
      6 C         141.3076  140.4220  170.6758 C.ar    1  UNL1        0.1470
      7 F         140.8507  140.8282  172.0456 F       1  UNL1       -0.2039
      8 C         141.9916  139.1025  170.4740 C.ar    1  UNL1        0.0299
      9 C         142.4485  138.6963  169.1042 C.ar    1  UNL1        0.0021
     10 C         142.2213  139.6096  167.9363 C.ar    1  UNL1        0.0008
     11 C         141.5372  140.9292  168.1381 C.ar    1  UNL1        0.0390
     12 H         139.4416  144.3548  170.3599 H       1  UNL1        0.2884
     13 H         139.8499  143.1036  171.4441 H       1  UNL1        0.2884
     14 C         140.4962  144.7700  163.6806 C.ar    1  UNL1        0.1442
     15 C         139.3259  144.2002  164.4259 C.ar    1  UNL1        0.0126
     16 C         137.9282  144.5438  164.0033 C.3     1  UNL1        0.0342
     17 C         139.5531  143.2868  165.5938 C.ar    1  UNL1       -0.0008
     18 C         140.9508  142.9432  166.0164 C.ar    1  UNL1        0.0302
     19 C         142.1211  143.5130  165.2711 C.ar    1  UNL1        0.0137
     20 C         141.8939  144.4264  164.1032 C.ar    1  UNL1        0.1018
     21 C         140.1918  145.1207  161.1243 C.3     1  UNL1        0.2525
     22 O         140.2690  145.6834  162.5126 O.3     1  UNL1       -0.4711
     23 C         143.0642  144.9963  163.3578 C.1     1  UNL1        0.1035
     24 N         144.2345  145.5661  162.6124 N.1     1  UNL1       -0.1907
     25 C         141.8094  141.1344  166.1599 C.ar    1  UNL1        0.0297
     26 C         143.2749  140.8239  166.2363 C.ar    1  UNL1        0.0004
     27 C         143.9063  139.9284  165.2118 C.ar    1  UNL1       -0.0002
     28 C         143.0721  139.3434  164.1109 C.ar    1  UNL1        0.0001
     29 C         141.6066  139.6539  164.0345 C.ar    1  UNL1        0.0028
     30 C         140.9752  140.5493  165.0590 C.ar    1  UNL1        0.0005
     31 C         140.7724  139.0689  162.9337 C.ar    1  UNL1        0.0384
     32 C         139.4227  138.4912  163.2415 C.ar    1  UNL1        0.1022
     33 N         138.5884  137.9062  162.1407 N.ar    1  UNL1       -0.2224
     34 C         139.1039  137.8988  160.7320 C.ar    1  UNL1        0.1989
     35 N         140.4536  138.4765  160.4242 N.ar    1  UNL1       -0.2224
     36 C         141.2878  139.0615  161.5250 C.ar    1  UNL1        0.1022
@<TRIPOS>BOND
     1    21    22    1
     2    22    14    1
     3    14    15   ar
     4    15    16    1
     5    15    17   ar
     6    17    18   ar
     7    18     1    1
     8     1    25    1
     9    25    26   ar
    10    26    27   ar
    11    27    28   ar
    12    28    29   ar
    13    29    31    1
    14    31    32   ar
    15    32    33   ar
    16    33    34   ar
    17    34    35   ar
    18    35    36   ar
    19    29    30   ar
    20     1     2    1
    21     2     3    2
    22     3     4    1
    23     3     5    1
    24     5     6   ar
    25     6     7    1
    26     6     8   ar
    27     8     9   ar
    28     9    10   ar
    29    10    11   ar
    30    18    19   ar
    31    19    20   ar
    32    20    23    1
    33    23    24    3
    34    20    14   ar
    35    11     1    1
    36    30    25   ar
    37    11     5   ar
    38    36    31   ar
    39     4    12    1
    40     4    13    1
@<TRIPOS>MOLECULE
*****
 36 40 0 0 0
SMALL
GASTEIGER

@<TRIPOS>ATOM
      1 C         140.5843  140.0639  166.2759 C.3     1  UNL1        0.2308
      2 N         140.9371  141.0208  167.3758 N.2     1  UNL1       -0.0614
      3 C         139.9496  140.8319  168.4890 C.2     1  UNL1        0.3157
      4 N         139.9289  141.5845  169.7864 N.pl3   1  UNL1       -0.2464
      5 C         138.9865  139.7582  168.0771 C.ar    1  UNL1        0.1094
      6 C         137.8031  139.1514  168.7707 C.ar    1  UNL1        0.1470
      7 F         137.4108  139.6261  170.1385 F       1  UNL1       -0.2039
      8 C         137.0119  138.0700  168.0966 C.ar    1  UNL1        0.0299
      9 C         137.4042  137.5953  166.7288 C.ar    1  UNL1        0.0021
     10 C         138.5876  138.2021  166.0351 C.ar    1  UNL1        0.0008
     11 C         139.3788  139.2835  166.7093 C.ar    1  UNL1        0.0390
     12 H         140.6073  142.2750  169.9658 H       1  UNL1        0.2884
     13 H         139.2368  141.3879  170.4584 H       1  UNL1        0.2884
     14 C         144.1348  141.8842  164.1950 C.ar    1  UNL1        0.1442
     15 C         144.1566  140.4367  164.5876 C.ar    1  UNL1        0.0126
     16 C         145.3618  139.5960  164.2867 C.3     1  UNL1        0.0342
     17 C         142.9731  139.8300  165.2813 C.ar    1  UNL1       -0.0008
     18 C         141.7679  140.6707  165.5822 C.ar    1  UNL1        0.0302
     19 C         141.7461  142.1182  165.1896 C.ar    1  UNL1        0.0137
     20 C         142.9296  142.7250  164.4960 C.ar    1  UNL1        0.1018
     21 C         145.3918  142.4893  162.0032 C.3     1  UNL1        0.2525
     22 O         145.3184  142.4911  163.5013 O.3     1  UNL1       -0.4711
     23 C         142.9079  144.1726  164.1033 C.1     1  UNL1        0.1035
     24 N         142.8862  145.6201  163.7107 N.1     1  UNL1       -0.1907
     25 C         140.4790  139.2338  165.0310 C.ar    1  UNL1        0.0297
     26 C         140.9772  137.8190  165.0285 C.ar    1  UNL1        0.0004
     27 C         140.8718  136.9889  163.7834 C.ar    1  UNL1       -0.0002
     28 C         140.2682  137.5737  162.5410 C.ar    1  UNL1        0.0001
     29 C         139.7700  138.9886  162.5435 C.ar    1  UNL1        0.0028
     30 C         139.8754  139.8186  163.7884 C.ar    1  UNL1        0.0005
     31 C         139.1664  139.5734  161.3011 C.ar    1  UNL1        0.0384
     32 C         137.7318  139.2961  160.9621 C.ar    1  UNL1        0.1022
     33 N         137.1281  139.8809  159.7196 N.ar    1  UNL1       -0.2224
     34 C         137.9591  140.7430  158.8162 C.ar    1  UNL1        0.1989
     35 N         139.3938  141.0202  159.1552 N.ar    1  UNL1       -0.2224
     36 C         139.9975  140.4355  160.3976 C.ar    1  UNL1        0.1022
@<TRIPOS>BOND
     1    21    22    1
     2    22    14    1
     3    14    15   ar
     4    15    16    1
     5    15    17   ar
     6    17    18   ar
     7    18     1    1
     8     1    25    1
     9    25    26   ar
    10    26    27   ar
    11    27    28   ar
    12    28    29   ar
    13    29    31    1
    14    31    32   ar
    15    32    33   ar
    16    33    34   ar
    17    34    35   ar
    18    35    36   ar
    19    29    30   ar
    20     1     2    1
    21     2     3    2
    22     3     4    1
    23     3     5    1
    24     5     6   ar
    25     6     7    1
    26     6     8   ar
    27     8     9   ar
    28     9    10   ar
    29    10    11   ar
    30    18    19   ar
    31    19    20   ar
    32    20    23    1
    33    23    24    3
    34    20    14   ar
    35    11     1    1
    36    30    25   ar
    37    11     5   ar
    38    36    31   ar
    39     4    12    1
    40     4    13    1
@<TRIPOS>MOLECULE
*****
 36 40 0 0 0
SMALL
GASTEIGER

@<TRIPOS>ATOM
      1 C         139.7591  140.8366  164.4000 C.3     1  UNL1        0.2308
      2 N         139.8645  139.5328  165.1343 N.2     1  UNL1       -0.0614
      3 C         139.1425  138.4902  164.3334 C.2     1  UNL1        0.3157
      4 N         138.9975  137.0423  164.6978 N.pl3   1  UNL1       -0.2464
      5 C         138.5908  139.1494  163.1042 C.ar    1  UNL1        0.1094
      6 C         137.7906  138.6166  161.9528 C.ar    1  UNL1        0.1470
      7 F         137.4095  137.1664  161.9116 F       1  UNL1       -0.2039
      8 C         137.3716  139.5340  160.8425 C.ar    1  UNL1        0.0299
      9 C         137.7527  140.9842  160.8837 C.ar    1  UNL1        0.0021
     10 C         138.5528  141.5170  162.0351 C.ar    1  UNL1        0.0008
     11 C         138.9719  140.5996  163.1454 C.ar    1  UNL1        0.0390
     12 H         139.3974  136.7019  165.5305 H       1  UNL1        0.2884
     13 H         138.5025  136.4325  164.1042 H       1  UNL1        0.2884
     14 C         142.1596  142.4349  167.8544 C.ar    1  UNL1        0.1442
     15 C         142.7385  142.4447  166.4706 C.ar    1  UNL1        0.0126
     16 C         144.1175  142.9872  166.2383 C.3     1  UNL1        0.0342
     17 C         141.9383  141.9119  165.3192 C.ar    1  UNL1       -0.0008
     18 C         140.5593  141.3694  165.5515 C.ar    1  UNL1        0.0302
     19 C         139.9804  141.3596  166.9353 C.ar    1  UNL1        0.0137
     20 C         140.7806  141.8924  168.0867 C.ar    1  UNL1        0.1018
     21 C         143.7956  142.0365  169.8330 C.3     1  UNL1        0.2525
     22 O         142.9598  142.9677  169.0059 O.3     1  UNL1       -0.4711
     23 C         140.2018  141.8827  169.4705 C.1     1  UNL1        0.1035
     24 N         139.6229  141.8729  170.8543 N.1     1  UNL1       -0.1907
     25 C         139.8209  142.2517  163.9065 C.ar    1  UNL1        0.0297
     26 C         139.2416  143.3606  164.7340 C.ar    1  UNL1        0.0004
     27 C         139.3034  144.7758  164.2404 C.ar    1  UNL1       -0.0002
     28 C         139.9446  145.0820  162.9194 C.ar    1  UNL1        0.0001
     29 C         140.5240  143.9731  162.0919 C.ar    1  UNL1        0.0028
     30 C         140.4622  142.5580  162.5854 C.ar    1  UNL1        0.0005
     31 C         141.1652  144.2793  160.7709 C.ar    1  UNL1        0.0384
     32 C         142.3819  143.5188  160.3336 C.ar    1  UNL1        0.1022
     33 N         143.0232  143.8249  159.0126 N.ar    1  UNL1       -0.2224
     34 C         142.4477  144.8916  158.1289 C.ar    1  UNL1        0.1989
     35 N         141.2309  145.6521  158.5662 N.ar    1  UNL1       -0.2224
     36 C         140.5897  145.3460  159.8871 C.ar    1  UNL1        0.1022
@<TRIPOS>BOND
     1    21    22    1
     2    22    14    1
     3    14    15   ar
     4    15    16    1
     5    15    17   ar
     6    17    18   ar
     7    18     1    1
     8     1    25    1
     9    25    26   ar
    10    26    27   ar
    11    27    28   ar
    12    28    29   ar
    13    29    31    1
    14    31    32   ar
    15    32    33   ar
    16    33    34   ar
    17    34    35   ar
    18    35    36   ar
    19    29    30   ar
    20     1     2    1
    21     2     3    2
    22     3     4    1
    23     3     5    1
    24     5     6   ar
    25     6     7    1
    26     6     8   ar
    27     8     9   ar
    28     9    10   ar
    29    10    11   ar
    30    18    19   ar
    31    19    20   ar
    32    20    23    1
    33    23    24    3
    34    20    14   ar
    35    11     1    1
    36    30    25   ar
    37    11     5   ar
    38    36    31   ar
    39     4    12    1
    40     4    13    1
