@<TRIPOS>MOLECULE
*****
 32 35 0 0 0
SMALL
GASTEIGER

@<TRIPOS>ATOM
      1 C         142.8684  137.4698  157.6385 C.ar    1  UNL1        0.1743
      2 N         142.5696  136.0106  157.4611 N.ar    1  UNL1       -0.2173
      3 C         142.7079  135.3756  156.1092 C.ar    1  UNL1        0.1834
      4 N         143.1452  136.1999  154.9346 N.ar    1  UNL1       -0.1885
      5 C         143.4440  137.6590  155.1120 C.ar    1  UNL1        0.2596
      6 O         143.8812  138.4833  153.9375 O.3     1  UNL1       -0.4898
      7 C         143.3056  138.2940  156.4640 C.ar    1  UNL1        0.2098
      8 O         143.6044  139.7532  156.6414 O.3     1  UNL1       -0.5007
      9 H         143.9677  138.0866  153.0930 H       1  UNL1        0.2938
     10 H         143.8775  140.2681  155.9077 H       1  UNL1        0.2924
     11 C         142.4091  133.9164  155.9318 C.ar    1  UNL1        0.1170
     12 N         141.2531  133.4859  155.0785 N.ar    1  UNL1       -0.2407
     13 C         140.9542  132.0268  154.9012 C.ar    1  UNL1        0.0989
     14 C         141.8115  130.9981  155.5771 C.ar    1  UNL1        0.0207
     15 C         142.9676  131.4285  156.4304 C.ar    1  UNL1        0.0031
     16 C         143.8248  130.3998  157.1063 C.ar    1  UNL1        0.0001
     17 C         144.9809  130.8303  157.9596 C.ar    1  UNL1        0.0000
     18 C         145.2797  132.2895  158.1370 C.ar    1  UNL1        0.0000
     19 C         144.4225  133.3182  157.4611 C.ar    1  UNL1        0.0016
     20 C         143.2664  132.8877  156.6078 C.ar    1  UNL1        0.0207
     21 N         142.9635  137.2910  160.2287 N.am    1  UNL1       -0.3012
     22 C         142.7300  138.1048  158.9904 C.2     1  UNL1        0.2668
     23 O         142.3581  139.5534  159.1041 O.2     1  UNL1       -0.2684
     24 H         143.2076  136.3401  160.1540 H       1  UNL1        0.1497
     25 C         143.9886  138.6482  162.1926 C.3     1  UNL1        0.0213
     26 C         142.8251  137.9259  161.5806 C.3     1  UNL1        0.0719
     27 C         141.5233  137.8384  162.3205 C.3     1  UNL1        0.0180
     28 C         140.2304  138.0587  161.5923 C.3     1  UNL1        0.0016
     29 C         138.9286  137.9712  162.3322 C.3     1  UNL1        0.0001
     30 C         138.9194  137.6635  163.8002 C.3     1  UNL1        0.0000
     31 C         140.2122  137.4433  164.5284 C.3     1  UNL1        0.0001
     32 C         141.5141  137.5307  163.7885 C.3     1  UNL1        0.0016
@<TRIPOS>BOND
     1    26    25    1
     2    26    21    1
     3    21    22   am
     4    22    23    2
     5    22     1    1
     6     1     2   ar
     7     2     3   ar
     8     3    11    1
     9    11    12   ar
    10    12    13   ar
    11    13    14   ar
    12    14    15   ar
    13    15    16   ar
    14    16    17   ar
    15    17    18   ar
    16    18    19   ar
    17    19    20   ar
    18     3     4   ar
    19     4     5   ar
    20     5     6    1
    21     5     7   ar
    22     7     8    1
    23    26    27    1
    24    27    28    1
    25    28    29    1
    26    29    30    1
    27    30    31    1
    28    31    32    1
    29     7     1   ar
    30    32    27    1
    31    20    11   ar
    32    20    15   ar
    33    21    24    1
    34     6     9    1
    35     8    10    1
@<TRIPOS>MOLECULE
*****
 32 35 0 0 0
SMALL
GASTEIGER

@<TRIPOS>ATOM
      1 C         141.3223  144.7809  160.3148 C.ar    1  UNL1        0.1743
      2 N         142.3088  143.7836  160.8460 N.ar    1  UNL1       -0.2173
      3 C         142.3038  143.4264  162.3028 C.ar    1  UNL1        0.1834
      4 N         141.3122  144.0666  163.2286 N.ar    1  UNL1       -0.1885
      5 C         140.3257  145.0639  162.6975 C.ar    1  UNL1        0.2596
      6 O         139.3341  145.7041  163.6232 O.3     1  UNL1       -0.4898
      7 C         140.3307  145.4211  161.2405 C.ar    1  UNL1        0.2098
      8 O         139.3442  146.4184  160.7094 O.3     1  UNL1       -0.5007
      9 H         139.3310  145.4810  164.5332 H       1  UNL1        0.2938
     10 H         138.7248  146.8183  161.2877 H       1  UNL1        0.2924
     11 C         143.2903  142.4291  162.8339 C.ar    1  UNL1        0.1170
     12 N         144.7438  142.7880  162.9263 N.ar    1  UNL1       -0.2407
     13 C         145.7303  141.7906  163.4574 C.ar    1  UNL1        0.0989
     14 C         145.2634  140.4344  163.8961 C.ar    1  UNL1        0.0207
     15 C         143.8098  140.0754  163.8038 C.ar    1  UNL1        0.0031
     16 C         143.3429  138.7192  164.2425 C.ar    1  UNL1        0.0001
     17 C         141.8894  138.3603  164.1501 C.ar    1  UNL1        0.0000
     18 C         140.9029  139.3576  163.6190 C.ar    1  UNL1        0.0000
     19 C         141.3698  140.7139  163.1803 C.ar    1  UNL1        0.0016
     20 C         142.8233  141.0728  163.2726 C.ar    1  UNL1        0.0207
     21 N         140.0325  145.2526  158.1093 N.am    1  UNL1       -0.3012
     22 C         141.3273  145.1380  158.8579 C.2     1  UNL1        0.2668
     23 O         142.6271  145.3807  158.1497 O.2     1  UNL1       -0.2684
     24 H         139.1794  145.0933  158.5742 H       1  UNL1        0.1497
     25 C         140.4461  144.5895  155.6316 C.3     1  UNL1        0.0213
     26 C         140.0375  145.6097  156.6525 C.3     1  UNL1        0.0719
     27 C         139.6340  146.9870  156.2166 C.3     1  UNL1        0.0180
     28 C         138.8577  147.8710  157.1473 C.3     1  UNL1        0.0016
     29 C         138.4542  149.2483  156.7114 C.3     1  UNL1        0.0001
     30 C         138.8269  149.7418  155.3448 C.3     1  UNL1        0.0000
     31 C         139.6031  148.8579  154.4141 C.3     1  UNL1        0.0001
     32 C         140.0067  147.4805  154.8500 C.3     1  UNL1        0.0016
@<TRIPOS>BOND
     1    26    25    1
     2    26    21    1
     3    21    22   am
     4    22    23    2
     5    22     1    1
     6     1     2   ar
     7     2     3   ar
     8     3    11    1
     9    11    12   ar
    10    12    13   ar
    11    13    14   ar
    12    14    15   ar
    13    15    16   ar
    14    16    17   ar
    15    17    18   ar
    16    18    19   ar
    17    19    20   ar
    18     3     4   ar
    19     4     5   ar
    20     5     6    1
    21     5     7   ar
    22     7     8    1
    23    26    27    1
    24    27    28    1
    25    28    29    1
    26    29    30    1
    27    30    31    1
    28    31    32    1
    29     7     1   ar
    30    32    27    1
    31    20    11   ar
    32    20    15   ar
    33    21    24    1
    34     6     9    1
    35     8    10    1
@<TRIPOS>MOLECULE
*****
 32 35 0 0 0
SMALL
GASTEIGER

@<TRIPOS>ATOM
      1 C         141.9662  137.6765  157.7919 C.ar    1  UNL1        0.1743
      2 N         142.7545  138.1260  158.9862 N.ar    1  UNL1       -0.2173
      3 C         142.1342  139.0537  159.9884 C.ar    1  UNL1        0.1834
      4 N         140.7255  139.5320  159.7963 N.ar    1  UNL1       -0.1885
      5 C         139.9371  139.0824  158.6020 C.ar    1  UNL1        0.2596
      6 O         138.5285  139.5606  158.4099 O.3     1  UNL1       -0.4898
      7 C         140.5575  138.1546  157.5998 C.ar    1  UNL1        0.2098
      8 O         139.7692  137.7051  156.4054 O.3     1  UNL1       -0.5007
      9 H         138.1409  140.1401  159.0359 H       1  UNL1        0.2938
     10 H         138.8892  138.0038  156.2854 H       1  UNL1        0.2924
     11 C         142.9226  139.5033  161.1827 C.ar    1  UNL1        0.1170
     12 N         143.9969  140.5382  161.0260 N.ar    1  UNL1       -0.2407
     13 C         144.7853  140.9877  162.2203 C.ar    1  UNL1        0.0989
     14 C         144.4993  140.4024  163.5714 C.ar    1  UNL1        0.0207
     15 C         143.4248  139.3674  163.7282 C.ar    1  UNL1        0.0031
     16 C         143.1388  138.7820  165.0793 C.ar    1  UNL1        0.0001
     17 C         142.0645  137.7471  165.2361 C.ar    1  UNL1        0.0000
     18 C         141.2761  137.2976  164.0417 C.ar    1  UNL1        0.0000
     19 C         141.5621  137.8829  162.6906 C.ar    1  UNL1        0.0016
     20 C         142.6365  138.9179  162.5339 C.ar    1  UNL1        0.0207
     21 N         141.8612  135.5047  156.3697 N.am    1  UNL1       -0.3012
     22 C         142.5866  136.7487  156.7896 C.2     1  UNL1        0.2668
     23 O         143.9323  137.0649  156.2074 O.2     1  UNL1       -0.2684
     24 H         140.9780  135.2972  156.7519 H       1  UNL1        0.1497
     25 C         142.2498  134.7931  153.9014 C.3     1  UNL1        0.0213
     26 C         142.4815  134.5769  155.3675 C.3     1  UNL1        0.0719
     27 C         143.3336  133.4330  155.8315 C.3     1  UNL1        0.0180
     28 C         144.0168  133.4994  157.1653 C.3     1  UNL1        0.0016
     29 C         144.8689  132.3554  157.6292 C.3     1  UNL1        0.0001
     30 C         145.0378  131.1451  156.7594 C.3     1  UNL1        0.0000
     31 C         144.3547  131.0787  155.4257 C.3     1  UNL1        0.0001
     32 C         143.5026  132.2226  154.9617 C.3     1  UNL1        0.0016
@<TRIPOS>BOND
     1    26    25    1
     2    26    21    1
     3    21    22   am
     4    22    23    2
     5    22     1    1
     6     1     2   ar
     7     2     3   ar
     8     3    11    1
     9    11    12   ar
    10    12    13   ar
    11    13    14   ar
    12    14    15   ar
    13    15    16   ar
    14    16    17   ar
    15    17    18   ar
    16    18    19   ar
    17    19    20   ar
    18     3     4   ar
    19     4     5   ar
    20     5     6    1
    21     5     7   ar
    22     7     8    1
    23    26    27    1
    24    27    28    1
    25    28    29    1
    26    29    30    1
    27    30    31    1
    28    31    32    1
    29     7     1   ar
    30    32    27    1
    31    20    11   ar
    32    20    15   ar
    33    21    24    1
    34     6     9    1
    35     8    10    1
@<TRIPOS>MOLECULE
*****
 32 35 0 0 0
SMALL
GASTEIGER

@<TRIPOS>ATOM
      1 C         142.6599  138.1920  157.8785 C.ar    1  UNL1        0.1743
      2 N         142.2495  137.7782  159.2607 N.ar    1  UNL1       -0.2173
      3 C         141.8659  138.8175  160.2719 C.ar    1  UNL1        0.1834
      4 N         141.8926  140.2707  159.9010 N.ar    1  UNL1       -0.1885
      5 C         142.3029  140.6845  158.5188 C.ar    1  UNL1        0.2596
      6 O         142.3296  142.1377  158.1479 O.3     1  UNL1       -0.4898
      7 C         142.6866  139.6451  157.5076 C.ar    1  UNL1        0.2098
      8 O         143.0969  140.0590  156.1254 O.3     1  UNL1       -0.5007
      9 H         142.0900  142.7869  158.7796 H       1  UNL1        0.2938
     10 H         143.1136  140.9667  155.8937 H       1  UNL1        0.2924
     11 C         141.4556  138.4036  161.6540 C.ar    1  UNL1        0.1170
     12 N         140.1118  137.7772  161.8815 N.ar    1  UNL1       -0.2407
     13 C         139.7014  137.3634  163.2636 C.ar    1  UNL1        0.0989
     14 C         140.6349  137.5760  164.4184 C.ar    1  UNL1        0.0207
     15 C         141.9788  138.2024  164.1910 C.ar    1  UNL1        0.0031
     16 C         142.9122  138.4149  165.3457 C.ar    1  UNL1        0.0001
     17 C         144.2560  139.0413  165.1182 C.ar    1  UNL1        0.0000
     18 C         144.6664  139.4552  163.7361 C.ar    1  UNL1        0.0000
     19 C         143.7329  139.2426  162.5814 C.ar    1  UNL1        0.0016
     20 C         142.3891  138.6162  162.8088 C.ar    1  UNL1        0.0207
     21 N         142.1780  135.9437  156.6690 N.am    1  UNL1       -0.3012
     22 C         143.0435  137.1526  156.8672 C.2     1  UNL1        0.2668
     23 O         144.2927  137.3222  156.0544 O.2     1  UNL1       -0.2684
     24 H         141.3581  135.8324  157.2025 H       1  UNL1        0.1497
     25 C         142.1280  135.0516  154.2294 C.3     1  UNL1        0.0213
     26 C         142.5616  134.9043  155.6578 C.3     1  UNL1        0.0719
     27 C         143.3787  133.7177  156.0750 C.3     1  UNL1        0.0180
     28 C         143.5461  132.5563  155.1405 C.3     1  UNL1        0.0016
     29 C         144.3633  131.3697  155.5577 C.3     1  UNL1        0.0001
     30 C         145.0132  131.3444  156.9094 C.3     1  UNL1        0.0000
     31 C         144.8458  132.5057  157.8439 C.3     1  UNL1        0.0001
     32 C         144.0286  133.6924  157.4267 C.3     1  UNL1        0.0016
@<TRIPOS>BOND
     1    26    25    1
     2    26    21    1
     3    21    22   am
     4    22    23    2
     5    22     1    1
     6     1     2   ar
     7     2     3   ar
     8     3    11    1
     9    11    12   ar
    10    12    13   ar
    11    13    14   ar
    12    14    15   ar
    13    15    16   ar
    14    16    17   ar
    15    17    18   ar
    16    18    19   ar
    17    19    20   ar
    18     3     4   ar
    19     4     5   ar
    20     5     6    1
    21     5     7   ar
    22     7     8    1
    23    26    27    1
    24    27    28    1
    25    28    29    1
    26    29    30    1
    27    30    31    1
    28    31    32    1
    29     7     1   ar
    30    32    27    1
    31    20    11   ar
    32    20    15   ar
    33    21    24    1
    34     6     9    1
    35     8    10    1
@<TRIPOS>MOLECULE
*****
 32 35 0 0 0
SMALL
GASTEIGER

@<TRIPOS>ATOM
      1 C         140.6678  143.3437  161.9457 C.ar    1  UNL1        0.1743
      2 N         140.5667  142.6175  163.2543 N.ar    1  UNL1       -0.2173
      3 C         141.5714  142.8792  164.3369 C.ar    1  UNL1        0.1834
      4 N         142.6773  143.8672  164.1109 N.ar    1  UNL1       -0.1885
      5 C         142.7783  144.5935  162.8023 C.ar    1  UNL1        0.2596
      6 O         143.8841  145.5814  162.5763 O.3     1  UNL1       -0.4898
      7 C         141.7736  144.3317  161.7197 C.ar    1  UNL1        0.2098
      8 O         141.8746  145.0579  160.4111 O.3     1  UNL1       -0.5007
      9 H         144.5118  145.7449  163.2526 H       1  UNL1        0.2938
     10 H         142.5654  145.6751  160.2700 H       1  UNL1        0.2924
     11 C         141.4703  142.1530  165.6454 C.ar    1  UNL1        0.1170
     12 N         140.6001  142.6965  166.7396 N.ar    1  UNL1       -0.2407
     13 C         140.4990  141.9703  168.0481 C.ar    1  UNL1        0.0989
     14 C         141.2681  140.7005  168.2626 C.ar    1  UNL1        0.0207
     15 C         142.1385  140.1569  167.1684 C.ar    1  UNL1        0.0031
     16 C         142.9076  138.8872  167.3829 C.ar    1  UNL1        0.0001
     17 C         143.7779  138.3436  166.2887 C.ar    1  UNL1        0.0000
     18 C         143.8790  139.0699  164.9801 C.ar    1  UNL1        0.0000
     19 C         143.1098  140.3396  164.7657 C.ar    1  UNL1        0.0016
     20 C         142.2396  140.8832  165.8598 C.ar    1  UNL1        0.0207
     21 N         140.1173  142.5871  159.5219 N.am    1  UNL1       -0.3012
     22 C         139.6630  143.0820  160.8631 C.2     1  UNL1        0.2668
     23 O         138.2040  143.3150  161.1217 O.2     1  UNL1       -0.2684
     24 H         141.0749  142.4341  159.3522 H       1  UNL1        0.1497
     25 C         138.3460  141.0361  158.4234 C.3     1  UNL1        0.0213
     26 C         139.1126  142.3253  158.4394 C.3     1  UNL1        0.0719
     27 C         138.8746  143.3527  157.3727 C.3     1  UNL1        0.0180
     28 C         139.7822  144.5418  157.2608 C.3     1  UNL1        0.0016
     29 C         139.5442  145.5692  156.1942 C.3     1  UNL1        0.0001
     30 C         138.3986  145.4076  155.2394 C.3     1  UNL1        0.0000
     31 C         137.4911  144.2186  155.3513 C.3     1  UNL1        0.0001
     32 C         137.7291  143.1911  156.4180 C.3     1  UNL1        0.0016
@<TRIPOS>BOND
     1    26    25    1
     2    26    21    1
     3    21    22   am
     4    22    23    2
     5    22     1    1
     6     1     2   ar
     7     2     3   ar
     8     3    11    1
     9    11    12   ar
    10    12    13   ar
    11    13    14   ar
    12    14    15   ar
    13    15    16   ar
    14    16    17   ar
    15    17    18   ar
    16    18    19   ar
    17    19    20   ar
    18     3     4   ar
    19     4     5   ar
    20     5     6    1
    21     5     7   ar
    22     7     8    1
    23    26    27    1
    24    27    28    1
    25    28    29    1
    26    29    30    1
    27    30    31    1
    28    31    32    1
    29     7     1   ar
    30    32    27    1
    31    20    11   ar
    32    20    15   ar
    33    21    24    1
    34     6     9    1
    35     8    10    1
@<TRIPOS>MOLECULE
*****
 32 35 0 0 0
SMALL
GASTEIGER

@<TRIPOS>ATOM
      1 C         142.3470  142.2665  162.9846 C.ar    1  UNL1        0.1743
      2 N         141.2548  141.7265  163.8597 N.ar    1  UNL1       -0.2173
      3 C         141.4852  140.4824  164.6652 C.ar    1  UNL1        0.1834
      4 N         142.8079  139.7781  164.5957 N.ar    1  UNL1       -0.1885
      5 C         143.9000  140.3181  163.7207 C.ar    1  UNL1        0.2596
      6 O         145.2226  139.6139  163.6513 O.3     1  UNL1       -0.4898
      7 C         143.6695  141.5623  162.9152 C.ar    1  UNL1        0.2098
      8 O         144.7617  142.1023  162.0402 O.3     1  UNL1       -0.5007
      9 H         145.3665  138.8367  164.1545 H       1  UNL1        0.2938
     10 H         145.5879  141.6624  161.9968 H       1  UNL1        0.2924
     11 C         140.3931  139.9424  165.5402 C.ar    1  UNL1        0.1170
     12 N         139.4153  138.9464  164.9908 N.ar    1  UNL1       -0.2407
     13 C         138.3231  138.4065  165.8658 C.ar    1  UNL1        0.0989
     14 C         138.2088  138.8625  167.2902 C.ar    1  UNL1        0.0207
     15 C         139.1866  139.8585  167.8397 C.ar    1  UNL1        0.0031
     16 C         139.0723  140.3145  169.2641 C.ar    1  UNL1        0.0001
     17 C         140.0502  141.3104  169.8135 C.ar    1  UNL1        0.0000
     18 C         141.1423  141.8504  168.9385 C.ar    1  UNL1        0.0000
     19 C         141.2566  141.3944  167.5141 C.ar    1  UNL1        0.0016
     20 C         140.2788  140.3984  166.9647 C.ar    1  UNL1        0.0207
     21 N         140.8300  143.6911  161.4292 N.am    1  UNL1       -0.3012
     22 C         142.1165  143.5107  162.1791 C.2     1  UNL1        0.2668
     23 O         143.1725  144.5745  162.1234 O.2     1  UNL1       -0.2684
     24 H         140.1369  142.9928  161.4657 H       1  UNL1        0.1497
     25 C         139.9410  146.1260  161.2548 C.3     1  UNL1        0.0213
     26 C         140.5994  144.9352  160.6237 C.3     1  UNL1        0.0719
     27 C         141.0274  144.9885  159.1870 C.3     1  UNL1        0.0180
     28 C         142.1493  144.1167  158.7058 C.3     1  UNL1        0.0016
     29 C         142.5773  144.1700  157.2692 C.3     1  UNL1        0.0001
     30 C         141.8834  145.0951  156.3137 C.3     1  UNL1        0.0000
     31 C         140.7616  145.9668  156.7949 C.3     1  UNL1        0.0001
     32 C         140.3336  145.9135  158.2316 C.3     1  UNL1        0.0016
@<TRIPOS>BOND
     1    26    25    1
     2    26    21    1
     3    21    22   am
     4    22    23    2
     5    22     1    1
     6     1     2   ar
     7     2     3   ar
     8     3    11    1
     9    11    12   ar
    10    12    13   ar
    11    13    14   ar
    12    14    15   ar
    13    15    16   ar
    14    16    17   ar
    15    17    18   ar
    16    18    19   ar
    17    19    20   ar
    18     3     4   ar
    19     4     5   ar
    20     5     6    1
    21     5     7   ar
    22     7     8    1
    23    26    27    1
    24    27    28    1
    25    28    29    1
    26    29    30    1
    27    30    31    1
    28    31    32    1
    29     7     1   ar
    30    32    27    1
    31    20    11   ar
    32    20    15   ar
    33    21    24    1
    34     6     9    1
    35     8    10    1
@<TRIPOS>MOLECULE
*****
 32 35 0 0 0
SMALL
GASTEIGER

@<TRIPOS>ATOM
      1 C         137.7977  141.3466  157.4280 C.ar    1  UNL1        0.1743
      2 N         137.9655  142.4413  158.4397 N.ar    1  UNL1       -0.2173
      3 C         139.1179  142.4056  159.3992 C.ar    1  UNL1        0.1834
      4 N         140.1026  141.2751  159.3470 N.ar    1  UNL1       -0.1885
      5 C         139.9347  140.1804  158.3353 C.ar    1  UNL1        0.2596
      6 O         140.9193  139.0500  158.2831 O.3     1  UNL1       -0.4898
      7 C         138.7822  140.2162  157.3758 C.ar    1  UNL1        0.2098
      8 O         138.6144  139.1215  156.3642 O.3     1  UNL1       -0.5007
      9 H         141.6392  139.0277  158.8824 H       1  UNL1        0.2938
     10 H         139.2295  138.4154  156.3315 H       1  UNL1        0.2924
     11 C         139.2858  143.5003  160.4108 C.ar    1  UNL1        0.1170
     12 N         139.9775  144.7751  160.0286 N.ar    1  UNL1       -0.2407
     13 C         140.1454  145.8698  161.0403 C.ar    1  UNL1        0.0989
     14 C         139.6215  145.6896  162.4342 C.ar    1  UNL1        0.0207
     15 C         138.9297  144.4147  162.8165 C.ar    1  UNL1        0.0031
     16 C         138.4058  144.2346  164.2104 C.ar    1  UNL1        0.0001
     17 C         137.7140  142.9597  164.5926 C.ar    1  UNL1        0.0000
     18 C         137.5462  141.8650  163.5809 C.ar    1  UNL1        0.0000
     19 C         138.0701  142.0452  162.1870 C.ar    1  UNL1        0.0016
     20 C         138.7618  143.3200  161.8048 C.ar    1  UNL1        0.0207
     21 N         135.7342  140.1969  156.3462 N.am    1  UNL1       -0.3012
     22 C         136.6452  141.3823  156.4686 C.2     1  UNL1        0.2668
     23 O         136.4037  142.6034  155.6315 O.2     1  UNL1       -0.2684
     24 H         135.8926  139.3955  156.8956 H       1  UNL1        0.1497
     25 C         134.8327  140.4173  153.9195 C.3     1  UNL1        0.0213
     26 C         134.5817  140.2326  155.3868 C.3     1  UNL1        0.0719
     27 C         133.1782  140.0837  155.8946 C.3     1  UNL1        0.0180
     28 C         132.1199  141.0589  155.4712 C.3     1  UNL1        0.0016
     29 C         130.7164  140.9099  155.9791 C.3     1  UNL1        0.0001
     30 C         130.3711  139.7858  156.9103 C.3     1  UNL1        0.0000
     31 C         131.4293  138.8107  157.3337 C.3     1  UNL1        0.0001
     32 C         132.8329  138.9596  156.8258 C.3     1  UNL1        0.0016
@<TRIPOS>BOND
     1    26    25    1
     2    26    21    1
     3    21    22   am
     4    22    23    2
     5    22     1    1
     6     1     2   ar
     7     2     3   ar
     8     3    11    1
     9    11    12   ar
    10    12    13   ar
    11    13    14   ar
    12    14    15   ar
    13    15    16   ar
    14    16    17   ar
    15    17    18   ar
    16    18    19   ar
    17    19    20   ar
    18     3     4   ar
    19     4     5   ar
    20     5     6    1
    21     5     7   ar
    22     7     8    1
    23    26    27    1
    24    27    28    1
    25    28    29    1
    26    29    30    1
    27    30    31    1
    28    31    32    1
    29     7     1   ar
    30    32    27    1
    31    20    11   ar
    32    20    15   ar
    33    21    24    1
    34     6     9    1
    35     8    10    1
@<TRIPOS>MOLECULE
*****
 32 35 0 0 0
SMALL
GASTEIGER

@<TRIPOS>ATOM
      1 C         142.4912  142.5528  163.3743 C.ar    1  UNL1        0.1743
      2 N         141.7130  142.3497  164.6404 N.ar    1  UNL1       -0.2173
      3 C         142.1471  141.3081  165.6287 C.ar    1  UNL1        0.1834
      4 N         143.3596  140.4697  165.3508 N.ar    1  UNL1       -0.1885
      5 C         144.1378  140.6729  164.0847 C.ar    1  UNL1        0.2596
      6 O         145.3502  139.8346  163.8068 O.3     1  UNL1       -0.4898
      7 C         143.7036  141.7145  163.0964 C.ar    1  UNL1        0.2098
      8 O         144.4818  141.9177  161.8303 O.3     1  UNL1       -0.5007
      9 H         145.6214  139.1839  164.4241 H       1  UNL1        0.2938
     10 H         145.2391  141.3940  161.6567 H       1  UNL1        0.2924
     11 C         141.3689  141.1049  166.8948 C.ar    1  UNL1        0.1170
     12 N         141.8149  141.7684  168.1640 N.ar    1  UNL1       -0.2407
     13 C         141.0367  141.5652  169.4301 C.ar    1  UNL1        0.0989
     14 C         139.8125  140.6985  169.4271 C.ar    1  UNL1        0.0207
     15 C         139.3664  140.0350  168.1579 C.ar    1  UNL1        0.0031
     16 C         138.1422  139.1683  168.1549 C.ar    1  UNL1        0.0001
     17 C         137.6962  138.5048  166.8857 C.ar    1  UNL1        0.0000
     18 C         138.4744  138.7080  165.6196 C.ar    1  UNL1        0.0000
     19 C         139.6986  139.5747  165.6226 C.ar    1  UNL1        0.0016
     20 C         140.1446  140.2382  166.8917 C.ar    1  UNL1        0.0207
     21 N         140.5973  143.8771  162.1869 N.am    1  UNL1       -0.3012
     22 C         142.0570  143.5945  162.3860 C.2     1  UNL1        0.2668
     23 O         143.0823  144.3533  161.5970 O.2     1  UNL1       -0.2684
     24 H         139.9244  143.3790  162.7048 H       1  UNL1        0.1497
     25 C         139.8030  146.2962  161.6705 C.3     1  UNL1        0.0213
     26 C         140.1631  144.9187  161.1987 C.3     1  UNL1        0.0719
     27 C         140.0890  144.5826  159.7388 C.3     1  UNL1        0.0180
     28 C         140.4400  145.6183  158.7120 C.3     1  UNL1        0.0016
     29 C         140.3659  145.2822  157.2520 C.3     1  UNL1        0.0001
     30 C         139.9407  143.9105  156.8188 C.3     1  UNL1        0.0000
     31 C         139.5897  142.8749  157.8455 C.3     1  UNL1        0.0001
     32 C         139.6638  143.2109  159.3055 C.3     1  UNL1        0.0016
@<TRIPOS>BOND
     1    26    25    1
     2    26    21    1
     3    21    22   am
     4    22    23    2
     5    22     1    1
     6     1     2   ar
     7     2     3   ar
     8     3    11    1
     9    11    12   ar
    10    12    13   ar
    11    13    14   ar
    12    14    15   ar
    13    15    16   ar
    14    16    17   ar
    15    17    18   ar
    16    18    19   ar
    17    19    20   ar
    18     3     4   ar
    19     4     5   ar
    20     5     6    1
    21     5     7   ar
    22     7     8    1
    23    26    27    1
    24    27    28    1
    25    28    29    1
    26    29    30    1
    27    30    31    1
    28    31    32    1
    29     7     1   ar
    30    32    27    1
    31    20    11   ar
    32    20    15   ar
    33    21    24    1
    34     6     9    1
    35     8    10    1
@<TRIPOS>MOLECULE
*****
 32 35 0 0 0
SMALL
GASTEIGER

@<TRIPOS>ATOM
      1 C         140.3706  143.8113  161.7003 C.ar    1  UNL1        0.1743
      2 N         140.4108  142.3649  162.0957 N.ar    1  UNL1       -0.2173
      3 C         139.9541  141.9481  163.4623 C.ar    1  UNL1        0.1834
      4 N         139.4572  142.9777  164.4336 N.ar    1  UNL1       -0.1885
      5 C         139.4170  144.4240  164.0381 C.ar    1  UNL1        0.2596
      6 O         138.9202  145.4536  165.0092 O.3     1  UNL1       -0.4898
      7 C         139.8737  144.8408  162.6714 C.ar    1  UNL1        0.2098
      8 O         139.8335  146.2872  162.2759 O.3     1  UNL1       -0.5007
      9 H         138.6349  145.1932  165.8629 H       1  UNL1        0.2938
     10 H         139.5231  146.9303  162.8826 H       1  UNL1        0.2924
     11 C         139.9943  140.5017  163.8578 C.ar    1  UNL1        0.1170
     12 N         138.7777  139.6422  163.6825 N.ar    1  UNL1       -0.2407
     13 C         138.8179  138.1958  164.0780 C.ar    1  UNL1        0.0989
     14 C         140.0748  137.6090  164.6488 C.ar    1  UNL1        0.0207
     15 C         141.2915  138.4686  164.8241 C.ar    1  UNL1        0.0031
     16 C         142.5484  137.8818  165.3949 C.ar    1  UNL1        0.0001
     17 C         143.7651  138.7414  165.5702 C.ar    1  UNL1        0.0000
     18 C         143.7249  140.1877  165.1748 C.ar    1  UNL1        0.0000
     19 C         142.4680  140.7745  164.6040 C.ar    1  UNL1        0.0016
     20 C         141.2513  139.9150  164.4286 C.ar    1  UNL1        0.0207
     21 N         140.4912  143.3833  159.1405 N.am    1  UNL1       -0.3012
     22 C         140.8272  144.2281  160.3336 C.2     1  UNL1        0.2668
     23 O         141.6199  145.4897  160.1600 O.2     1  UNL1       -0.2684
     24 H         139.9710  142.5553  159.2544 H       1  UNL1        0.1497
     25 C         142.2847  143.3531  157.2610 C.3     1  UNL1        0.0213
     26 C         140.9479  143.8001  157.7738 C.3     1  UNL1        0.0719
     27 C         140.0676  144.6638  156.9200 C.3     1  UNL1        0.0180
     28 C         138.9704  144.0438  156.1064 C.3     1  UNL1        0.0016
     29 C         138.0902  144.9076  155.2525 C.3     1  UNL1        0.0001
     30 C         138.3070  146.3913  155.2123 C.3     1  UNL1        0.0000
     31 C         139.4041  147.0112  156.0258 C.3     1  UNL1        0.0001
     32 C         140.2845  146.1475  156.8797 C.3     1  UNL1        0.0016
@<TRIPOS>BOND
     1    26    25    1
     2    26    21    1
     3    21    22   am
     4    22    23    2
     5    22     1    1
     6     1     2   ar
     7     2     3   ar
     8     3    11    1
     9    11    12   ar
    10    12    13   ar
    11    13    14   ar
    12    14    15   ar
    13    15    16   ar
    14    16    17   ar
    15    17    18   ar
    16    18    19   ar
    17    19    20   ar
    18     3     4   ar
    19     4     5   ar
    20     5     6    1
    21     5     7   ar
    22     7     8    1
    23    26    27    1
    24    27    28    1
    25    28    29    1
    26    29    30    1
    27    30    31    1
    28    31    32    1
    29     7     1   ar
    30    32    27    1
    31    20    11   ar
    32    20    15   ar
    33    21    24    1
    34     6     9    1
    35     8    10    1
