@<TRIPOS>MOLECULE
*****
 24 27 0 0 0
SMALL
GASTEIGER

@<TRIPOS>ATOM
      1 N         139.4605  138.5590  164.3158 N.3     1  UNL1       -0.2682
      2 C         140.8544  139.0479  164.0540 C.3     1  UNL1        0.0771
      3 C         141.7336  139.8834  164.9365 C.3     1  UNL1        0.0434
      4 C         141.4363  140.4365  166.2987 C.ar    1  UNL1       -0.0232
      5 C         142.5953  141.2228  166.8358 C.ar    1  UNL1        0.0151
      6 C         142.5043  141.8632  168.1891 C.ar    1  UNL1        0.0889
      7 N         143.4769  142.6917  168.9750 N.ar    1  UNL1       -0.2245
      8 C         142.8280  143.0579  170.2769 C.ar    1  UNL1        0.1567
      9 N         143.4447  143.8817  171.3683 N.pl3   1  UNL1       -0.3375
     10 S         141.4544  142.4557  170.2956 S.2     1  UNL1       -0.0520
     11 C         141.2543  141.7174  169.0054 C.ar    1  UNL1        0.0494
     12 C         140.0953  140.9311  168.4683 C.ar    1  UNL1        0.0035
     13 C         140.1863  140.2906  167.1149 C.ar    1  UNL1       -0.0241
     14 C         138.9249  139.5557  166.7705 C.3     1  UNL1        0.0434
     15 C         138.6020  138.7850  165.5247 C.3     1  UNL1        0.0771
     16 H         144.3575  144.2349  171.2625 H       1  UNL1        0.1442
     17 H         142.9366  144.0691  172.1904 H       1  UNL1        0.1442
     18 C         138.8440  137.7353  163.2243 C.3     1  UNL1        0.1023
     19 C         139.6792  138.9477  158.1535 C.3     1  UNL1        0.1537
     20 N         139.0636  138.8708  159.5192 N.ar    1  UNL1       -0.2476
     21 C         139.6134  138.1154  160.6928 C.ar    1  UNL1        0.0938
     22 C         138.6797  138.3135  161.8501 C.ar    1  UNL1        0.0335
     23 C         137.5531  139.1913  161.3917 C.ar    1  UNL1        0.1187
     24 N         137.7904  139.5357  159.9512 N.ar    1  UNL1       -0.1679
@<TRIPOS>BOND
     1    19    20    1
     2    20    21   ar
     3    21    22   ar
     4    22    18    1
     5    18     1    1
     6     1     2    1
     7     2     3    1
     8     3     4    1
     9     4     5   ar
    10     5     6   ar
    11     6     7   ar
    12     7     8   ar
    13     8     9    1
    14     8    10   ar
    15    10    11   ar
    16    11    12   ar
    17    12    13   ar
    18    13    14    1
    19    14    15    1
    20    22    23   ar
    21    23    24   ar
    22    24    20   ar
    23    15     1    1
    24    13     4   ar
    25    11     6   ar
    26     9    16    1
    27     9    17    1
@<TRIPOS>MOLECULE
*****
 24 27 0 0 0
SMALL
GASTEIGER

@<TRIPOS>ATOM
      1 N         139.7164  138.6525  162.6980 N.3     1  UNL1       -0.2682
      2 C         138.9584  137.9158  163.7625 C.3     1  UNL1        0.0771
      3 C         138.8151  138.2589  165.2157 C.3     1  UNL1        0.0434
      4 C         139.3943  139.4232  165.9633 C.ar    1  UNL1       -0.0232
      5 C         139.0053  139.3927  167.4117 C.ar    1  UNL1        0.0151
      6 C         139.4818  140.4710  168.3391 C.ar    1  UNL1        0.0889
      7 N         139.2624  140.7037  169.8046 N.ar    1  UNL1       -0.2245
      8 C         139.9924  141.9563  170.1894 C.ar    1  UNL1        0.1567
      9 N         140.0429  142.5612  171.5611 N.pl3   1  UNL1       -0.3375
     10 S         140.6629  142.4978  168.9618 S.2     1  UNL1       -0.0520
     11 C         140.3473  141.5799  167.8183 C.ar    1  UNL1        0.0494
     12 C         140.7363  141.6104  166.3698 C.ar    1  UNL1        0.0035
     13 C         140.2598  140.5321  165.4424 C.ar    1  UNL1       -0.0241
     14 C         140.7599  140.7504  164.0452 C.3     1  UNL1        0.0434
     15 C         140.5180  139.9139  162.8238 C.3     1  UNL1        0.0771
     16 H         139.5675  142.1295  172.3073 H       1  UNL1        0.1442
     17 H         140.5514  143.3900  171.7152 H       1  UNL1        0.1442
     18 C         139.6658  138.0475  161.3263 C.3     1  UNL1        0.1023
     19 C         139.0571  140.1888  156.5383 C.3     1  UNL1        0.1537
     20 N         138.8362  139.8236  157.9763 N.ar    1  UNL1       -0.2476
     21 C         139.7091  138.9257  158.8021 C.ar    1  UNL1        0.0938
     22 C         139.1160  138.8393  160.1771 C.ar    1  UNL1        0.0335
     23 C         137.8765  139.6838  160.2011 C.ar    1  UNL1        0.1187
     24 N         137.7036  140.2920  158.8410 N.ar    1  UNL1       -0.1679
@<TRIPOS>BOND
     1    19    20    1
     2    20    21   ar
     3    21    22   ar
     4    22    18    1
     5    18     1    1
     6     1     2    1
     7     2     3    1
     8     3     4    1
     9     4     5   ar
    10     5     6   ar
    11     6     7   ar
    12     7     8   ar
    13     8     9    1
    14     8    10   ar
    15    10    11   ar
    16    11    12   ar
    17    12    13   ar
    18    13    14    1
    19    14    15    1
    20    22    23   ar
    21    23    24   ar
    22    24    20   ar
    23    15     1    1
    24    13     4   ar
    25    11     6   ar
    26     9    16    1
    27     9    17    1
@<TRIPOS>MOLECULE
*****
 24 27 0 0 0
SMALL
GASTEIGER

@<TRIPOS>ATOM
      1 N         139.0317  139.5101  162.7036 N.3     1  UNL1       -0.2682
      2 C         140.5143  139.3067  162.8070 C.3     1  UNL1        0.0771
      3 C         141.3812  139.3507  164.0304 C.3     1  UNL1        0.0434
      4 C         140.9797  139.6089  165.4523 C.ar    1  UNL1       -0.0232
      5 C         142.1632  139.5639  166.3728 C.ar    1  UNL1        0.0151
      6 C         141.9792  139.7969  167.8431 C.ar    1  UNL1        0.0889
      7 N         142.9505  139.8142  168.9859 N.ar    1  UNL1       -0.2245
      8 C         142.1833  140.1030  170.2421 C.ar    1  UNL1        0.1567
      9 N         142.7604  140.2115  171.6224 N.pl3   1  UNL1       -0.3375
     10 S         140.7378  140.2641  169.8756 S.2     1  UNL1       -0.0520
     11 C         140.6116  140.0749  168.3930 C.ar    1  UNL1        0.0494
     12 C         139.4280  140.1200  167.4725 C.ar    1  UNL1        0.0035
     13 C         139.6121  139.8869  166.0022 C.ar    1  UNL1       -0.0241
     14 C         138.3082  139.9754  165.2659 C.3     1  UNL1        0.0434
     15 C         138.0500  139.8077  163.7978 C.3     1  UNL1        0.0771
     16 H         143.7271  140.0891  171.7628 H       1  UNL1        0.1442
     17 H         142.1725  140.4052  172.3880 H       1  UNL1        0.1442
     18 C         138.4547  139.4016  161.3232 C.3     1  UNL1        0.1023
     19 C         137.8361  142.5204  157.1076 C.3     1  UNL1        0.1537
     20 N         138.0870  142.0500  158.5098 N.ar    1  UNL1       -0.2476
     21 C         138.0698  140.6251  158.9781 C.ar    1  UNL1        0.0938
     22 C         138.3714  140.6165  160.4475 C.ar    1  UNL1        0.0335
     23 C         138.5751  142.0360  160.8871 C.ar    1  UNL1        0.1187
     24 N         138.3993  142.9220  159.6896 N.ar    1  UNL1       -0.1679
@<TRIPOS>BOND
     1    19    20    1
     2    20    21   ar
     3    21    22   ar
     4    22    18    1
     5    18     1    1
     6     1     2    1
     7     2     3    1
     8     3     4    1
     9     4     5   ar
    10     5     6   ar
    11     6     7   ar
    12     7     8   ar
    13     8     9    1
    14     8    10   ar
    15    10    11   ar
    16    11    12   ar
    17    12    13   ar
    18    13    14    1
    19    14    15    1
    20    22    23   ar
    21    23    24   ar
    22    24    20   ar
    23    15     1    1
    24    13     4   ar
    25    11     6   ar
    26     9    16    1
    27     9    17    1
@<TRIPOS>MOLECULE
*****
 24 27 0 0 0
SMALL
GASTEIGER

@<TRIPOS>ATOM
      1 N         139.5512  138.4172  162.6358 N.3     1  UNL1       -0.2682
      2 C         141.0128  138.2103  162.9027 C.3     1  UNL1        0.0771
      3 C         141.7754  138.4536  164.1713 C.3     1  UNL1        0.0434
      4 C         141.2650  138.9637  165.4861 C.ar    1  UNL1       -0.0232
      5 C         142.3655  139.0610  166.5008 C.ar    1  UNL1        0.0151
      6 C         142.0668  139.5512  167.8866 C.ar    1  UNL1        0.0889
      7 N         142.9394  139.7524  169.0899 N.ar    1  UNL1       -0.2245
      8 C         142.0795  140.2696  170.2049 C.ar    1  UNL1        0.1567
      9 N         142.5425  140.6087  171.5907 N.pl3   1  UNL1       -0.3375
     10 S         140.6755  140.3881  169.6906 S.2     1  UNL1       -0.0520
     11 C         140.6676  139.9441  168.2579 C.ar    1  UNL1        0.0494
     12 C         139.5670  139.8468  167.2432 C.ar    1  UNL1        0.0035
     13 C         139.8657  139.3566  165.8574 C.ar    1  UNL1       -0.0241
     14 C         138.6314  139.3364  165.0054 C.3     1  UNL1        0.0434
     15 C         138.4915  138.9183  163.5716 C.3     1  UNL1        0.0771
     16 H         143.4897  140.4967  171.8345 H       1  UNL1        0.1442
     17 H         141.8991  140.9434  172.2566 H       1  UNL1        0.1442
     18 C         139.0883  138.0780  161.2499 C.3     1  UNL1        0.1023
     19 C         138.0411  142.1196  158.0173 C.3     1  UNL1        0.1537
     20 N         138.7219  140.9506  158.6655 N.ar    1  UNL1       -0.2476
     21 C         138.2059  140.1682  159.8368 C.ar    1  UNL1        0.0938
     22 C         139.2032  139.0929  160.1514 C.ar    1  UNL1        0.0335
     23 C         140.3355  139.2106  159.1747 C.ar    1  UNL1        0.1187
     24 N         140.0380  140.3587  158.2564 N.ar    1  UNL1       -0.1679
@<TRIPOS>BOND
     1    19    20    1
     2    20    21   ar
     3    21    22   ar
     4    22    18    1
     5    18     1    1
     6     1     2    1
     7     2     3    1
     8     3     4    1
     9     4     5   ar
    10     5     6   ar
    11     6     7   ar
    12     7     8   ar
    13     8     9    1
    14     8    10   ar
    15    10    11   ar
    16    11    12   ar
    17    12    13   ar
    18    13    14    1
    19    14    15    1
    20    22    23   ar
    21    23    24   ar
    22    24    20   ar
    23    15     1    1
    24    13     4   ar
    25    11     6   ar
    26     9    16    1
    27     9    17    1
@<TRIPOS>MOLECULE
*****
 24 27 0 0 0
SMALL
GASTEIGER

@<TRIPOS>ATOM
      1 N         138.8101  142.5142  163.6905 N.3     1  UNL1       -0.2682
      2 C         139.3506  141.1164  163.6252 C.3     1  UNL1        0.0771
      3 C         140.1588  140.3774  164.6503 C.3     1  UNL1        0.0434
      4 C         140.6261  140.8536  165.9936 C.ar    1  UNL1       -0.0232
      5 C         141.4123  139.7942  166.7076 C.ar    1  UNL1        0.0151
      6 C         141.9729  140.0676  168.0718 C.ar    1  UNL1        0.0889
      7 N         142.7820  139.2242  169.0119 N.ar    1  UNL1       -0.2245
      8 C         143.0567  140.0358  170.2432 C.ar    1  UNL1        0.1567
      9 N         143.8342  139.5819  171.4430 N.pl3   1  UNL1       -0.3375
     10 S         142.4173  141.3807  170.0640 S.2     1  UNL1       -0.0520
     11 C         141.7475  141.4004  168.7220 C.ar    1  UNL1        0.0494
     12 C         140.9614  142.4599  168.0080 C.ar    1  UNL1        0.0035
     13 C         140.4007  142.1864  166.6439 C.ar    1  UNL1       -0.0241
     14 C         139.6523  143.3722  166.1113 C.3     1  UNL1        0.0434
     15 C         138.9444  143.5180  164.7968 C.3     1  UNL1        0.0771
     16 H         144.2175  138.6754  171.4671 H       1  UNL1        0.1442
     17 H         143.9613  140.1905  172.2063 H       1  UNL1        0.1442
     18 C         138.0326  142.9679  162.4907 C.3     1  UNL1        0.1023
     19 C         141.3016  144.9858  158.8681 C.3     1  UNL1        0.1537
     20 N         140.2417  144.1543  159.5280 N.ar    1  UNL1       -0.2476
     21 C         139.8264  144.2351  160.9671 C.ar    1  UNL1        0.0938
     22 C         138.7391  143.2268  161.1931 C.ar    1  UNL1        0.0335
     23 C         138.4824  142.5229  159.8936 C.ar    1  UNL1        0.1187
     24 N         139.4110  143.0961  158.8646 N.ar    1  UNL1       -0.1679
@<TRIPOS>BOND
     1    19    20    1
     2    20    21   ar
     3    21    22   ar
     4    22    18    1
     5    18     1    1
     6     1     2    1
     7     2     3    1
     8     3     4    1
     9     4     5   ar
    10     5     6   ar
    11     6     7   ar
    12     7     8   ar
    13     8     9    1
    14     8    10   ar
    15    10    11   ar
    16    11    12   ar
    17    12    13   ar
    18    13    14    1
    19    14    15    1
    20    22    23   ar
    21    23    24   ar
    22    24    20   ar
    23    15     1    1
    24    13     4   ar
    25    11     6   ar
    26     9    16    1
    27     9    17    1
@<TRIPOS>MOLECULE
*****
 24 27 0 0 0
SMALL
GASTEIGER

@<TRIPOS>ATOM
      1 N         139.6275  138.9972  162.6890 N.3     1  UNL1       -0.2682
      2 C         138.9786  138.1571  163.7490 C.3     1  UNL1        0.0771
      3 C         138.8830  138.4205  165.2227 C.3     1  UNL1        0.0434
      4 C         139.4124  139.5887  166.0002 C.ar    1  UNL1       -0.0232
      5 C         139.0989  139.4618  167.4616 C.ar    1  UNL1        0.0151
      6 C         139.5413  140.5284  168.4190 C.ar    1  UNL1        0.0889
      7 N         139.3785  140.6755  169.9028 N.ar    1  UNL1       -0.2245
      8 C         140.0338  141.9600  170.3160 C.ar    1  UNL1        0.1567
      9 N         140.1081  142.5025  171.7125 N.pl3   1  UNL1       -0.3375
     10 S         140.6016  142.6067  169.0875 S.2     1  UNL1       -0.0520
     11 C         140.2972  141.7220  167.9151 C.ar    1  UNL1        0.0494
     12 C         140.6108  141.8489  166.4537 C.ar    1  UNL1        0.0035
     13 C         140.1684  140.7823  165.4963 C.ar    1  UNL1       -0.0241
     14 C         140.5815  141.1024  164.0903 C.3     1  UNL1        0.0434
     15 C         140.3408  140.3078  162.8410 C.3     1  UNL1        0.0771
     16 H         139.7028  142.0021  172.4572 H       1  UNL1        0.1442
     17 H         140.5622  143.3589  171.8844 H       1  UNL1        0.1442
     18 C         139.5530  138.4546  161.2926 C.3     1  UNL1        0.1023
     19 C         142.9082  138.7057  157.2231 C.3     1  UNL1        0.1537
     20 N         142.3392  138.4666  158.5903 N.ar    1  UNL1       -0.2476
     21 C         140.9262  138.7347  159.0164 C.ar    1  UNL1        0.0938
     22 C         140.7970  138.3512  160.4608 C.ar    1  UNL1        0.0335
     23 C         142.1301  137.8462  160.9273 C.ar    1  UNL1        0.1187
     24 N         143.0832  137.9175  159.7713 N.ar    1  UNL1       -0.1679
@<TRIPOS>BOND
     1    19    20    1
     2    20    21   ar
     3    21    22   ar
     4    22    18    1
     5    18     1    1
     6     1     2    1
     7     2     3    1
     8     3     4    1
     9     4     5   ar
    10     5     6   ar
    11     6     7   ar
    12     7     8   ar
    13     8     9    1
    14     8    10   ar
    15    10    11   ar
    16    11    12   ar
    17    12    13   ar
    18    13    14    1
    19    14    15    1
    20    22    23   ar
    21    23    24   ar
    22    24    20   ar
    23    15     1    1
    24    13     4   ar
    25    11     6   ar
    26     9    16    1
    27     9    17    1
@<TRIPOS>MOLECULE
*****
 24 27 0 0 0
SMALL
GASTEIGER

@<TRIPOS>ATOM
      1 N         138.6244  142.1968  163.2011 N.3     1  UNL1       -0.2682
      2 C         138.0347  141.0690  163.9951 C.3     1  UNL1        0.0771
      3 C         138.5106  140.4917  165.2953 C.3     1  UNL1        0.0434
      4 C         139.6935  140.8995  166.1224 C.ar    1  UNL1       -0.0232
      5 C         139.8140  140.0584  167.3586 C.ar    1  UNL1        0.0151
      6 C         140.9339  140.3032  168.3261 C.ar    1  UNL1        0.0889
      7 N         141.3062  139.6403  169.6190 N.ar    1  UNL1       -0.2245
      8 C         142.5356  140.3164  170.1495 C.ar    1  UNL1        0.1567
      9 N         143.2517  139.9721  171.4218 N.pl3   1  UNL1       -0.3375
     10 S         142.9231  141.3972  169.1844 S.2     1  UNL1       -0.0520
     11 C         141.9333  141.3891  168.0575 C.ar    1  UNL1        0.0494
     12 C         141.8127  142.2302  166.8213 C.ar    1  UNL1        0.0035
     13 C         140.6929  141.9854  165.8538 C.ar    1  UNL1       -0.0241
     14 C         140.7560  142.9317  164.6916 C.3     1  UNL1        0.0434
     15 C         139.8354  143.0256  163.5111 C.3     1  UNL1        0.0771
     16 H         142.9187  139.2419  171.9920 H       1  UNL1        0.1442
     17 H         144.0548  140.4763  171.6866 H       1  UNL1        0.1442
     18 C         137.9082  142.5410  161.9288 C.3     1  UNL1        0.1023
     19 C         139.3430  141.1280  157.0477 C.3     1  UNL1        0.1537
     20 N         138.8054  141.0787  158.4472 N.ar    1  UNL1       -0.2476
     21 C         138.7609  142.2234  159.4155 C.ar    1  UNL1        0.0938
     22 C         138.1459  141.7281  160.6908 C.ar    1  UNL1        0.0335
     23 C         137.8104  140.2773  160.5107 C.ar    1  UNL1        0.1187
     24 N         138.2179  139.8759  159.1241 N.ar    1  UNL1       -0.1679
@<TRIPOS>BOND
     1    19    20    1
     2    20    21   ar
     3    21    22   ar
     4    22    18    1
     5    18     1    1
     6     1     2    1
     7     2     3    1
     8     3     4    1
     9     4     5   ar
    10     5     6   ar
    11     6     7   ar
    12     7     8   ar
    13     8     9    1
    14     8    10   ar
    15    10    11   ar
    16    11    12   ar
    17    12    13   ar
    18    13    14    1
    19    14    15    1
    20    22    23   ar
    21    23    24   ar
    22    24    20   ar
    23    15     1    1
    24    13     4   ar
    25    11     6   ar
    26     9    16    1
    27     9    17    1
@<TRIPOS>MOLECULE
*****
 24 27 0 0 0
SMALL
GASTEIGER

@<TRIPOS>ATOM
      1 N         140.1062  139.1924  162.5637 N.3     1  UNL1       -0.2682
      2 C         140.7224  140.5456  162.7629 C.3     1  UNL1        0.0771
      3 C         140.8591  141.3333  164.0322 C.3     1  UNL1        0.0434
      4 C         140.4135  140.9624  165.4155 C.ar    1  UNL1       -0.0232
      5 C         140.7442  142.0401  166.4052 C.ar    1  UNL1        0.0151
      6 C         140.3826  141.8676  167.8507 C.ar    1  UNL1        0.0889
      7 N         140.5796  142.7509  169.0469 N.ar    1  UNL1       -0.2245
      8 C         140.0090  142.0467  170.2421 C.ar    1  UNL1        0.1567
      9 N         139.9912  142.5694  171.6480 N.pl3   1  UNL1       -0.3375
     10 S         139.4594  140.7283  169.7846 S.2     1  UNL1       -0.0520
     11 C         139.6902  140.6175  168.3067 C.ar    1  UNL1        0.0494
     12 C         139.3595  139.5399  167.3170 C.ar    1  UNL1        0.0035
     13 C         139.7211  139.7123  165.8715 C.ar    1  UNL1       -0.0241
     14 C         139.3033  138.5243  165.0566 C.3     1  UNL1        0.0434
     15 C         139.4747  138.2930  163.5845 C.3     1  UNL1        0.0771
     16 H         140.3790  143.4515  171.8502 H       1  UNL1        0.1442
     17 H         139.5918  142.0304  172.3685 H       1  UNL1        0.1442
     18 C         140.1241  138.6699  161.1578 C.3     1  UNL1        0.1023
     19 C         143.3870  140.0158  157.2306 C.3     1  UNL1        0.1537
     20 N         142.8558  139.4424  158.5109 N.ar    1  UNL1       -0.2476
     21 C         141.4394  139.5321  158.9965 C.ar    1  UNL1        0.0938
     22 C         141.3560  138.8237  160.3161 C.ar    1  UNL1        0.0335
     23 C         142.7209  138.2963  160.6460 C.ar    1  UNL1        0.1187
     24 N         143.6478  138.6786  159.5304 N.ar    1  UNL1       -0.1679
@<TRIPOS>BOND
     1    19    20    1
     2    20    21   ar
     3    21    22   ar
     4    22    18    1
     5    18     1    1
     6     1     2    1
     7     2     3    1
     8     3     4    1
     9     4     5   ar
    10     5     6   ar
    11     6     7   ar
    12     7     8   ar
    13     8     9    1
    14     8    10   ar
    15    10    11   ar
    16    11    12   ar
    17    12    13   ar
    18    13    14    1
    19    14    15    1
    20    22    23   ar
    21    23    24   ar
    22    24    20   ar
    23    15     1    1
    24    13     4   ar
    25    11     6   ar
    26     9    16    1
    27     9    17    1
@<TRIPOS>MOLECULE
*****
 24 27 0 0 0
SMALL
GASTEIGER

@<TRIPOS>ATOM
      1 N         139.8344  143.0819  162.9566 N.3     1  UNL1       -0.2682
      2 C         141.2013  143.5563  163.3528 C.3     1  UNL1        0.0771
      3 C         141.9628  143.2672  164.6125 C.3     1  UNL1        0.0434
      4 C         141.5456  142.4325  165.7868 C.ar    1  UNL1       -0.0232
      5 C         142.6096  142.4031  166.8438 C.ar    1  UNL1        0.0151
      6 C         142.3919  141.6218  168.1056 C.ar    1  UNL1        0.0889
      7 N         143.2525  141.4090  169.3155 N.ar    1  UNL1       -0.2245
      8 C         142.5028  140.5256  170.2681 C.ar    1  UNL1        0.1567
      9 N         142.9914  140.0576  171.6069 N.pl3   1  UNL1       -0.3375
     10 S         141.1788  140.1925  169.6470 S.2     1  UNL1       -0.0520
     11 C         141.1102  140.8699  168.3105 C.ar    1  UNL1        0.0494
     12 C         140.0462  140.8993  167.2535 C.ar    1  UNL1        0.0035
     13 C         140.2639  141.6806  165.9917 C.ar    1  UNL1       -0.0241
     14 C         139.0829  141.5778  165.0728 C.3     1  UNL1        0.0434
     15 C         138.8918  142.2014  163.7220 C.3     1  UNL1        0.0771
     16 H         143.8803  140.3314  171.9297 H       1  UNL1        0.1442
     17 H         142.4233  139.4766  172.1627 H       1  UNL1        0.1442
     18 C         139.3459  143.5500  161.6178 C.3     1  UNL1        0.1023
     19 C         142.9929  143.5668  157.7994 C.3     1  UNL1        0.1537
     20 N         142.0025  144.0258  158.8283 N.ar    1  UNL1       -0.2476
     21 C         141.1739  143.1403  159.7111 C.ar    1  UNL1        0.0938
     22 C         140.3262  144.0180  160.5834 C.ar    1  UNL1        0.0335
     23 C         140.6309  145.4459  160.2397 C.ar    1  UNL1        0.1187
     24 N         141.6669  145.4507  159.1550 N.ar    1  UNL1       -0.1679
@<TRIPOS>BOND
     1    19    20    1
     2    20    21   ar
     3    21    22   ar
     4    22    18    1
     5    18     1    1
     6     1     2    1
     7     2     3    1
     8     3     4    1
     9     4     5   ar
    10     5     6   ar
    11     6     7   ar
    12     7     8   ar
    13     8     9    1
    14     8    10   ar
    15    10    11   ar
    16    11    12   ar
    17    12    13   ar
    18    13    14    1
    19    14    15    1
    20    22    23   ar
    21    23    24   ar
    22    24    20   ar
    23    15     1    1
    24    13     4   ar
    25    11     6   ar
    26     9    16    1
    27     9    17    1
