@<TRIPOS>MOLECULE
*****
 31 32 0 0 0
SMALL
GASTEIGER

@<TRIPOS>ATOM
      1 C         141.2517  143.0931  164.4649 C.ar    1  UNL1       -0.0185
      2 C         142.6214  142.6119  164.8422 C.ar    1  UNL1       -0.0041
      3 C         142.9272  142.2626  166.2685 C.ar    1  UNL1        0.0057
      4 C         141.8633  142.3944  167.3176 C.ar    1  UNL1        0.0696
      5 C         140.4936  142.8756  166.9404 C.ar    1  UNL1        0.0095
      6 C         140.1878  143.2250  165.5141 C.ar    1  UNL1        0.0677
      7 C         140.0285  144.4906  158.7596 C.2     1  UNL1        0.2558
      8 O         139.4211  143.4644  157.8497 O.2     1  UNL1       -0.2721
      9 N         140.3343  144.1412  160.1859 N.am    1  UNL1       -0.2775
     10 C         140.9417  145.1674  161.0958 C.3     1  UNL1        0.0938
     11 C         141.2475  144.8181  162.5221 C.3     1  UNL1        0.0259
     12 C         140.9459  143.4425  163.0386 C.3     1  UNL1        0.0257
     13 C         140.3385  142.4163  162.1287 C.3     1  UNL1        0.0259
     14 C         140.0327  142.7656  160.7024 C.3     1  UNL1        0.0938
     15 C         140.3301  145.8661  158.2431 C.3     1  UNL1        0.2272
     16 C         139.2147  147.0044  156.1912 C.3     1  UNL1        0.1748
     17 O         140.2947  146.1380  156.7684 O.3     1  UNL1       -0.3417
     18 C         142.1691  142.0451  168.7440 C.2     1  UNL1        0.3078
     19 O         143.2064  142.8208  169.5003 O.2     1  UNL1       -0.2516
     20 N         141.4376  140.9199  169.4139 N.am    1  UNL1       -0.1708
     21 H         140.7567  140.4107  168.9175 H       1  UNL1        0.2545
     22 C         141.7433  140.5706  170.8403 C.2     1  UNL1        0.3751
     23 N         140.6723  140.6780  171.8849 N.pl3   1  UNL1       -0.1313
     24 N         143.1202  140.1138  171.2219 N.pl3   1  UNL1       -0.2906
     25 H         139.7687  140.9778  171.6344 H       1  UNL1        0.3060
     26 H         143.8232  140.0433  170.5363 H       1  UNL1        0.2545
     27 H         143.3210  139.8845  172.1581 H       1  UNL1        0.2545
     28 C         138.8180  143.7062  165.1369 C.3     1  UNL1        0.4183
     29 F         137.4483  144.1873  164.7597 F       1  UNL1       -0.1659
     30 F         139.2653  145.1257  165.3234 F       1  UNL1       -0.1659
     31 F         138.3707  142.2867  164.9503 F       1  UNL1       -0.1659
@<TRIPOS>BOND
     1    16    17    1
     2    17    15    1
     3    15     7    1
     4     7     8    2
     5     7     9   am
     6     9    10    1
     7    10    11    1
     8    11    12    1
     9    12     1    1
    10     1     2   ar
    11     2     3   ar
    12     3     4   ar
    13     4    18    1
    14    18    19    2
    15    18    20   am
    16    20    22    1
    17    22    23    2
    18    22    24    1
    19     4     5   ar
    20     5     6   ar
    21     6    28    1
    22    28    29    1
    23    28    30    1
    24    28    31    1
    25    12    13    1
    26    13    14    1
    27    14     9    1
    28     6     1   ar
    29    20    21    1
    30    23    25    1
    31    24    26    1
    32    24    27    1
@<TRIPOS>MOLECULE
*****
 31 32 0 0 0
SMALL
GASTEIGER

@<TRIPOS>ATOM
      1 C         141.4446  143.0280  164.4452 C.ar    1  UNL1       -0.0185
      2 C         142.8560  142.6635  164.7990 C.ar    1  UNL1       -0.0041
      3 C         143.2060  142.3048  166.2128 C.ar    1  UNL1        0.0057
      4 C         142.1448  142.3106  167.2727 C.ar    1  UNL1        0.0696
      5 C         140.7335  142.6751  166.9190 C.ar    1  UNL1        0.0095
      6 C         140.3834  143.0339  165.5052 C.ar    1  UNL1        0.0677
      7 C         140.0444  144.4629  158.7901 C.2     1  UNL1        0.2558
      8 O         140.1440  145.8874  158.3311 O.2     1  UNL1       -0.2721
      9 N         140.3944  144.1042  160.2038 N.am    1  UNL1       -0.2775
     10 C         140.2948  142.6796  160.6628 C.3     1  UNL1        0.0938
     11 C         140.6449  142.3209  162.0766 C.3     1  UNL1        0.0259
     12 C         141.0946  143.3868  163.0314 C.3     1  UNL1        0.0257
     13 C         141.1942  144.8113  162.5724 C.3     1  UNL1        0.0259
     14 C         140.8441  145.1700  161.1587 C.3     1  UNL1        0.0938
     15 C         139.5947  143.3971  157.8352 C.3     1  UNL1        0.2272
     16 C         137.3925  142.7366  156.6252 C.3     1  UNL1        0.1748
     17 O         138.1850  142.8874  157.8899 O.3     1  UNL1       -0.3417
     18 C         142.4948  141.9519  168.6865 C.2     1  UNL1        0.3078
     19 O         143.6540  142.6200  169.3648 O.2     1  UNL1       -0.2516
     20 N         141.6858  140.9251  169.4221 N.am    1  UNL1       -0.1708
     21 H         140.9250  140.4866  168.9769 H       1  UNL1        0.2545
     22 C         142.0359  140.5664  170.8359 C.2     1  UNL1        0.3751
     23 N         141.0253  140.7514  171.9288 N.pl3   1  UNL1       -0.1313
     24 N         143.3966  140.0226  171.1567 N.pl3   1  UNL1       -0.2906
     25 H         140.1323  141.1083  171.7182 H       1  UNL1        0.3060
     26 H         144.0598  139.9012  170.4394 H       1  UNL1        0.2545
     27 H         143.6264  139.7872  172.0846 H       1  UNL1        0.2545
     28 C         138.9720  143.3984  165.1514 C.3     1  UNL1        0.4183
     29 F         137.5606  143.7629  164.7977 F       1  UNL1       -0.1659
     30 F         139.2813  144.8438  165.4065 F       1  UNL1       -0.1659
     31 F         138.6626  141.9530  164.8964 F       1  UNL1       -0.1659
@<TRIPOS>BOND
     1    16    17    1
     2    17    15    1
     3    15     7    1
     4     7     8    2
     5     7     9   am
     6     9    10    1
     7    10    11    1
     8    11    12    1
     9    12     1    1
    10     1     2   ar
    11     2     3   ar
    12     3     4   ar
    13     4    18    1
    14    18    19    2
    15    18    20   am
    16    20    22    1
    17    22    23    2
    18    22    24    1
    19     4     5   ar
    20     5     6   ar
    21     6    28    1
    22    28    29    1
    23    28    30    1
    24    28    31    1
    25    12    13    1
    26    13    14    1
    27    14     9    1
    28     6     1   ar
    29    20    21    1
    30    23    25    1
    31    24    26    1
    32    24    27    1
@<TRIPOS>MOLECULE
*****
 31 32 0 0 0
SMALL
GASTEIGER

@<TRIPOS>ATOM
      1 C         140.2865  142.5711  164.2199 C.ar    1  UNL1       -0.0185
      2 C         141.3513  142.0168  163.3206 C.ar    1  UNL1       -0.0041
      3 C         141.4319  142.4622  161.8905 C.ar    1  UNL1        0.0057
      4 C         140.4476  143.4618  161.3597 C.ar    1  UNL1        0.0696
      5 C         139.3828  144.0161  162.2590 C.ar    1  UNL1        0.0095
      6 C         139.3022  143.5708  163.6891 C.ar    1  UNL1        0.0677
      7 C         139.9643  140.7896  169.9402 C.2     1  UNL1        0.2558
      8 O         139.1786  139.5638  170.3009 O.2     1  UNL1       -0.2721
      9 N         140.0448  141.2350  168.5101 N.am    1  UNL1       -0.2775
     10 C         140.8305  142.4608  168.1495 C.3     1  UNL1        0.0938
     11 C         140.9110  142.9061  166.7194 C.3     1  UNL1        0.0259
     12 C         140.2059  142.1257  165.6500 C.3     1  UNL1        0.0257
     13 C         139.4203  140.8999  166.0106 C.3     1  UNL1        0.0259
     14 C         139.3397  140.4545  167.4407 C.3     1  UNL1        0.0938
     15 C         140.6694  141.5700  171.0096 C.3     1  UNL1        0.2272
     16 C         142.9241  140.2970  170.7961 C.3     1  UNL1        0.1748
     17 O         141.9171  141.0235  171.6377 O.3     1  UNL1       -0.3417
     18 C         140.5282  143.9072  159.9296 C.2     1  UNL1        0.3078
     19 O         140.0186  143.0154  158.8365 O.2     1  UNL1       -0.2516
     20 N         141.1183  145.2444  159.5926 N.am    1  UNL1       -0.1708
     21 H         141.4527  145.8298  160.3101 H       1  UNL1        0.2545
     22 C         141.1988  145.6898  158.1625 C.2     1  UNL1        0.3751
     23 N         142.4886  146.2255  157.6154 N.pl3   1  UNL1       -0.1313
     24 N         139.9895  145.5994  157.2796 N.pl3   1  UNL1       -0.2906
     25 H         143.2823  146.2849  158.1949 H       1  UNL1        0.3060
     26 H         139.1430  145.2478  157.6387 H       1  UNL1        0.2545
     27 H         140.0424  145.8917  156.3410 H       1  UNL1        0.2545
     28 C         138.2373  144.1251  164.5884 C.3     1  UNL1        0.4183
     29 F         137.1724  144.6794  165.4877 F       1  UNL1       -0.1659
     30 F         139.1272  145.2838  164.9280 F       1  UNL1       -0.1659
     31 F         137.3474  142.9664  164.2488 F       1  UNL1       -0.1659
@<TRIPOS>BOND
     1    16    17    1
     2    17    15    1
     3    15     7    1
     4     7     8    2
     5     7     9   am
     6     9    10    1
     7    10    11    1
     8    11    12    1
     9    12     1    1
    10     1     2   ar
    11     2     3   ar
    12     3     4   ar
    13     4    18    1
    14    18    19    2
    15    18    20   am
    16    20    22    1
    17    22    23    2
    18    22    24    1
    19     4     5   ar
    20     5     6   ar
    21     6    28    1
    22    28    29    1
    23    28    30    1
    24    28    31    1
    25    12    13    1
    26    13    14    1
    27    14     9    1
    28     6     1   ar
    29    20    21    1
    30    23    25    1
    31    24    26    1
    32    24    27    1
@<TRIPOS>MOLECULE
*****
 31 32 0 0 0
SMALL
GASTEIGER

@<TRIPOS>ATOM
      1 C         141.5917  143.0008  164.3904 C.ar    1  UNL1       -0.0185
      2 C         140.5019  142.9121  165.4172 C.ar    1  UNL1       -0.0041
      3 C         140.8349  142.5539  166.8353 C.ar    1  UNL1        0.0057
      4 C         142.2576  142.2844  167.2265 C.ar    1  UNL1        0.0696
      5 C         143.3474  142.3731  166.1997 C.ar    1  UNL1        0.0095
      6 C         143.0145  142.7313  164.7816 C.ar    1  UNL1        0.0677
      7 C         140.2600  144.4335  158.7182 C.2     1  UNL1        0.2558
      8 O         139.7810  143.3746  157.7699 O.2     1  UNL1       -0.2721
      9 N         140.5929  144.0753  160.1363 N.am    1  UNL1       -0.2775
     10 C         141.0719  145.1341  161.0846 C.3     1  UNL1        0.0938
     11 C         141.4048  144.7760  162.5026 C.3     1  UNL1        0.0259
     12 C         141.2588  143.3589  162.9724 C.3     1  UNL1        0.0257
     13 C         140.7798  142.3001  162.0240 C.3     1  UNL1        0.0259
     14 C         140.4469  142.6583  160.6060 C.3     1  UNL1        0.0938
     15 C         140.4060  145.8505  158.2485 C.3     1  UNL1        0.2272
     16 C         140.5270  146.5054  155.7372 C.3     1  UNL1        0.1748
     17 O         139.7260  146.2967  156.9882 O.3     1  UNL1       -0.3417
     18 C         142.5905  141.9262  168.6445 C.2     1  UNL1        0.3078
     19 O         143.7841  142.5414  169.3130 O.2     1  UNL1       -0.2516
     20 N         141.7299  140.9529  169.3941 N.am    1  UNL1       -0.1708
     21 H         140.9465  140.5491  168.9554 H       1  UNL1        0.2545
     22 C         142.0628  140.5947  170.8122 C.2     1  UNL1        0.3751
     23 N         141.0534  140.8180  171.8989 N.pl3   1  UNL1       -0.1313
     24 N         143.4053  140.0132  171.1434 N.pl3   1  UNL1       -0.2906
     25 H         140.1723  141.1997  171.6815 H       1  UNL1        0.3060
     26 H         144.0679  139.8666  170.4301 H       1  UNL1        0.2545
     27 H         143.6239  139.7781  172.0741 H       1  UNL1        0.2545
     28 C         144.1044  142.8200  163.7548 C.3     1  UNL1        0.4183
     29 F         145.1942  142.9087  162.7280 F       1  UNL1       -0.1659
     30 F         143.8809  141.3815  163.3933 F       1  UNL1       -0.1659
     31 F         144.3278  144.2585  164.1163 F       1  UNL1       -0.1659
@<TRIPOS>BOND
     1    16    17    1
     2    17    15    1
     3    15     7    1
     4     7     8    2
     5     7     9   am
     6     9    10    1
     7    10    11    1
     8    11    12    1
     9    12     1    1
    10     1     2   ar
    11     2     3   ar
    12     3     4   ar
    13     4    18    1
    14    18    19    2
    15    18    20   am
    16    20    22    1
    17    22    23    2
    18    22    24    1
    19     4     5   ar
    20     5     6   ar
    21     6    28    1
    22    28    29    1
    23    28    30    1
    24    28    31    1
    25    12    13    1
    26    13    14    1
    27    14     9    1
    28     6     1   ar
    29    20    21    1
    30    23    25    1
    31    24    26    1
    32    24    27    1
@<TRIPOS>MOLECULE
*****
 31 32 0 0 0
SMALL
GASTEIGER

@<TRIPOS>ATOM
      1 C         141.5128  143.0655  164.4893 C.ar    1  UNL1       -0.0185
      2 C         140.4358  142.9308  165.5247 C.ar    1  UNL1       -0.0041
      3 C         140.7910  142.5479  166.9308 C.ar    1  UNL1        0.0057
      4 C         142.2230  142.2998  167.3016 C.ar    1  UNL1        0.0696
      5 C         143.3000  142.4345  166.2663 C.ar    1  UNL1        0.0095
      6 C         142.9448  142.8174  164.8601 C.ar    1  UNL1        0.0677
      7 C         140.0922  144.5970  158.8647 C.2     1  UNL1        0.2558
      8 O         140.1376  146.0364  158.4451 O.2     1  UNL1       -0.2721
      9 N         140.4473  144.2142  160.2709 N.am    1  UNL1       -0.2775
     10 C         140.4019  142.7748  160.6905 C.3     1  UNL1        0.0938
     11 C         140.7571  142.3919  162.0966 C.3     1  UNL1        0.0259
     12 C         141.1576  143.4484  163.0832 C.3     1  UNL1        0.0257
     13 C         141.2030  144.8878  162.6636 C.3     1  UNL1        0.0259
     14 C         140.8479  145.2706  161.2574 C.3     1  UNL1        0.0938
     15 C         139.6916  143.5405  157.8781 C.3     1  UNL1        0.2272
     16 C         138.0244  142.9399  155.9782 C.3     1  UNL1        0.1748
     17 O         138.9528  143.9217  156.6296 O.3     1  UNL1       -0.3417
     18 C         142.5782  141.9169  168.7078 C.2     1  UNL1        0.3078
     19 O         143.7756  142.5291  169.3721 O.2     1  UNL1       -0.2516
     20 N         141.7359  140.9218  169.4496 N.am    1  UNL1       -0.1708
     21 H         140.9500  140.5200  169.0136 H       1  UNL1        0.2545
     22 C         142.0911  140.5390  170.8558 C.2     1  UNL1        0.3751
     23 N         141.1017  140.7501  171.9632 N.pl3   1  UNL1       -0.1313
     24 N         143.4357  139.9449  171.1545 N.pl3   1  UNL1       -0.2906
     25 H         140.2192  141.1400  171.7672 H       1  UNL1        0.3060
     26 H         144.0851  139.8063  170.4276 H       1  UNL1        0.2545
     27 H         143.6688  139.6936  172.0774 H       1  UNL1        0.2545
     28 C         144.0219  142.9521  163.8247 C.3     1  UNL1        0.4183
     29 F         145.0988  143.0868  162.7894 F       1  UNL1       -0.1659
     30 F         144.1981  144.3948  164.1957 F       1  UNL1       -0.1659
     31 F         143.8457  141.5095  163.4538 F       1  UNL1       -0.1659
@<TRIPOS>BOND
     1    16    17    1
     2    17    15    1
     3    15     7    1
     4     7     8    2
     5     7     9   am
     6     9    10    1
     7    10    11    1
     8    11    12    1
     9    12     1    1
    10     1     2   ar
    11     2     3   ar
    12     3     4   ar
    13     4    18    1
    14    18    19    2
    15    18    20   am
    16    20    22    1
    17    22    23    2
    18    22    24    1
    19     4     5   ar
    20     5     6   ar
    21     6    28    1
    22    28    29    1
    23    28    30    1
    24    28    31    1
    25    12    13    1
    26    13    14    1
    27    14     9    1
    28     6     1   ar
    29    20    21    1
    30    23    25    1
    31    24    26    1
    32    24    27    1
@<TRIPOS>MOLECULE
*****
 31 32 0 0 0
SMALL
GASTEIGER

@<TRIPOS>ATOM
      1 C         139.3387  140.0929  164.6159 C.ar    1  UNL1       -0.0185
      2 C         138.5637  139.2014  165.5403 C.ar    1  UNL1       -0.0041
      3 C         138.7153  139.3478  167.0254 C.ar    1  UNL1        0.0057
      4 C         139.6419  140.3856  167.5861 C.ar    1  UNL1        0.0696
      5 C         140.4169  141.2770  166.6617 C.ar    1  UNL1        0.0095
      6 C         140.2653  141.1306  165.1765 C.ar    1  UNL1        0.0677
      7 C         138.7325  139.5075  158.6753 C.2     1  UNL1        0.2558
      8 O         137.6914  140.3034  157.9456 O.2     1  UNL1       -0.2721
      9 N         138.8841  139.6538  160.1605 N.am    1  UNL1       -0.2775
     10 C         139.9251  138.8579  160.8902 C.3     1  UNL1        0.0938
     11 C         140.0767  139.0042  162.3753 C.3     1  UNL1        0.0259
     12 C         139.1872  139.9465  163.1307 C.3     1  UNL1        0.0257
     13 C         138.1461  140.7425  162.4010 C.3     1  UNL1        0.0259
     14 C         137.9945  140.5961  160.9159 C.3     1  UNL1        0.0938
     15 C         139.6220  138.5652  157.9199 C.3     1  UNL1        0.2272
     16 C         140.0555  137.0557  155.8502 C.3     1  UNL1        0.1748
     17 O         139.1372  137.9321  156.6494 O.3     1  UNL1       -0.3417
     18 C         139.7934  140.5319  169.0712 C.2     1  UNL1        0.3078
     19 O         138.7402  139.9873  169.9899 O.2     1  UNL1       -0.2516
     20 N         140.9982  141.2229  169.6377 N.am    1  UNL1       -0.1708
     21 H         141.6895  141.5804  169.0348 H       1  UNL1        0.2545
     22 C         141.1498  141.3692  171.1228 C.2     1  UNL1        0.3751
     23 N         142.2103  140.5954  171.8484 N.pl3   1  UNL1       -0.1313
     24 N         140.2408  142.2895  171.8824 N.pl3   1  UNL1       -0.2906
     25 H         142.8068  139.9914  171.3498 H       1  UNL1        0.3060
     26 H         139.5448  142.7974  171.4062 H       1  UNL1        0.2545
     27 H         140.3403  142.3856  172.8572 H       1  UNL1        0.2545
     28 C         141.0404  142.0222  164.2521 C.3     1  UNL1        0.4183
     29 F         141.8154  142.9136  163.3277 F       1  UNL1       -0.1659
     30 F         142.1578  141.0219  164.2242 F       1  UNL1       -0.1659
     31 F         139.9230  143.0225  164.2800 F       1  UNL1       -0.1659
@<TRIPOS>BOND
     1    16    17    1
     2    17    15    1
     3    15     7    1
     4     7     8    2
     5     7     9   am
     6     9    10    1
     7    10    11    1
     8    11    12    1
     9    12     1    1
    10     1     2   ar
    11     2     3   ar
    12     3     4   ar
    13     4    18    1
    14    18    19    2
    15    18    20   am
    16    20    22    1
    17    22    23    2
    18    22    24    1
    19     4     5   ar
    20     5     6   ar
    21     6    28    1
    22    28    29    1
    23    28    30    1
    24    28    31    1
    25    12    13    1
    26    13    14    1
    27    14     9    1
    28     6     1   ar
    29    20    21    1
    30    23    25    1
    31    24    26    1
    32    24    27    1
@<TRIPOS>MOLECULE
*****
 31 32 0 0 0
SMALL
GASTEIGER

@<TRIPOS>ATOM
      1 C         141.2655  139.6292  164.1398 C.ar    1  UNL1       -0.0185
      2 C         139.8017  139.6047  164.4659 C.ar    1  UNL1       -0.0041
      3 C         139.3498  139.6884  165.8937 C.ar    1  UNL1        0.0057
      4 C         140.3619  139.7966  166.9955 C.ar    1  UNL1        0.0696
      5 C         141.8258  139.8211  166.6695 C.ar    1  UNL1        0.0095
      6 C         142.2776  139.7373  165.2416 C.ar    1  UNL1        0.0677
      7 C         143.0729  139.2943  158.4283 C.2     1  UNL1        0.2558
      8 O         143.2619  137.9556  157.7787 O.2     1  UNL1       -0.2721
      9 N         142.6211  139.3780  159.8562 N.am    1  UNL1       -0.2775
     10 C         142.4321  140.7168  160.5058 C.3     1  UNL1        0.0938
     11 C         141.9802  140.8005  161.9336 C.3     1  UNL1        0.0259
     12 C         141.7174  139.5455  162.7119 C.3     1  UNL1        0.0257
     13 C         141.9064  138.2067  162.0623 C.3     1  UNL1        0.0259
     14 C         142.3582  138.1230  160.6344 C.3     1  UNL1        0.0938
     15 C         143.3358  140.5494  157.6500 C.3     1  UNL1        0.2272
     16 C         144.9049  142.5170  158.2951 C.3     1  UNL1        0.1748
     17 O         144.7011  141.1702  157.6668 O.3     1  UNL1       -0.3417
     18 C         139.9100  139.8803  168.4234 C.2     1  UNL1        0.3078
     19 O         138.4833  139.5819  168.7773 O.2     1  UNL1       -0.2516
     20 N         140.8849  140.2625  169.4974 N.am    1  UNL1       -0.1708
     21 H         141.8214  140.4583  169.2651 H       1  UNL1        0.2545
     22 C         140.4331  140.3462  170.9253 C.2     1  UNL1        0.3751
     23 N         140.7019  141.5860  171.7255 N.pl3   1  UNL1       -0.1313
     24 N         139.7124  139.1899  171.5529 N.pl3   1  UNL1       -0.2906
     25 H         141.1749  142.3449  171.3136 H       1  UNL1        0.3060
     26 H         139.5360  138.3762  171.0276 H       1  UNL1        0.2545
     27 H         139.4158  139.2449  172.4901 H       1  UNL1        0.2545
     28 C         143.7416  139.7618  164.9155 C.3     1  UNL1        0.4183
     29 F         145.2055  139.7862  164.5895 F       1  UNL1       -0.1659
     30 F         143.6998  141.2593  164.8403 F       1  UNL1       -0.1659
     31 F         143.7833  138.2643  164.9908 F       1  UNL1       -0.1659
@<TRIPOS>BOND
     1    16    17    1
     2    17    15    1
     3    15     7    1
     4     7     8    2
     5     7     9   am
     6     9    10    1
     7    10    11    1
     8    11    12    1
     9    12     1    1
    10     1     2   ar
    11     2     3   ar
    12     3     4   ar
    13     4    18    1
    14    18    19    2
    15    18    20   am
    16    20    22    1
    17    22    23    2
    18    22    24    1
    19     4     5   ar
    20     5     6   ar
    21     6    28    1
    22    28    29    1
    23    28    30    1
    24    28    31    1
    25    12    13    1
    26    13    14    1
    27    14     9    1
    28     6     1   ar
    29    20    21    1
    30    23    25    1
    31    24    26    1
    32    24    27    1
@<TRIPOS>MOLECULE
*****
 31 32 0 0 0
SMALL
GASTEIGER

@<TRIPOS>ATOM
      1 C         139.6848  141.6302  164.3704 C.ar    1  UNL1       -0.0185
      2 C         140.0168  140.4852  165.2807 C.ar    1  UNL1       -0.0041
      3 C         140.2988  140.7384  166.7321 C.ar    1  UNL1        0.0057
      4 C         140.2488  142.1366  167.2730 C.ar    1  UNL1        0.0696
      5 C         139.9168  143.2815  166.3626 C.ar    1  UNL1        0.0095
      6 C         139.6348  143.0283  164.9113 C.ar    1  UNL1        0.0677
      7 C         138.5569  140.6174  158.5650 C.2     1  UNL1        0.2558
      8 O         137.1628  140.2918  158.1175 O.2     1  UNL1       -0.2721
      9 N         138.8389  140.8706  160.0163 N.am    1  UNL1       -0.2775
     10 C         140.2331  141.1962  160.4638 C.3     1  UNL1        0.0938
     11 C         140.5150  141.4494  161.9152 C.3     1  UNL1        0.0259
     12 C         139.4029  141.3770  162.9190 C.3     1  UNL1        0.0257
     13 C         138.0087  141.0514  162.4715 C.3     1  UNL1        0.0259
     14 C         137.7267  140.7982  161.0202 C.3     1  UNL1        0.0938
     15 C         139.6691  140.6898  157.5612 C.3     1  UNL1        0.2272
     16 C         140.2092  138.1697  157.8893 C.3     1  UNL1        0.1748
     17 O         140.3364  139.4321  157.0891 O.3     1  UNL1       -0.3417
     18 C         140.5308  142.3898  168.7244 C.2     1  UNL1        0.3078
     19 O         140.1906  143.7174  169.3340 O.2     1  UNL1       -0.2516
     20 N         141.1529  141.3154  169.5661 N.am    1  UNL1       -0.1708
     21 H         141.3761  140.4440  169.1660 H       1  UNL1        0.2545
     22 C         141.4348  141.5686  171.0174 C.2     1  UNL1        0.3751
     23 N         140.8161  140.6921  172.0657 N.pl3   1  UNL1       -0.1313
     24 N         142.3356  142.6983  171.4205 N.pl3   1  UNL1       -0.2906
     25 H         140.2249  139.9507  171.8012 H       1  UNL1        0.3060
     26 H         142.7418  143.2735  170.7324 H       1  UNL1        0.2545
     27 H         142.5207  142.8645  172.3730 H       1  UNL1        0.2545
     28 C         139.3028  144.1733  164.0009 C.3     1  UNL1        0.4183
     29 F         138.9707  145.3183  163.0906 F       1  UNL1       -0.1659
     30 F         140.7610  144.3591  163.7027 F       1  UNL1       -0.1659
     31 F         137.8446  143.9876  164.2992 F       1  UNL1       -0.1659
@<TRIPOS>BOND
     1    16    17    1
     2    17    15    1
     3    15     7    1
     4     7     8    2
     5     7     9   am
     6     9    10    1
     7    10    11    1
     8    11    12    1
     9    12     1    1
    10     1     2   ar
    11     2     3   ar
    12     3     4   ar
    13     4    18    1
    14    18    19    2
    15    18    20   am
    16    20    22    1
    17    22    23    2
    18    22    24    1
    19     4     5   ar
    20     5     6   ar
    21     6    28    1
    22    28    29    1
    23    28    30    1
    24    28    31    1
    25    12    13    1
    26    13    14    1
    27    14     9    1
    28     6     1   ar
    29    20    21    1
    30    23    25    1
    31    24    26    1
    32    24    27    1
@<TRIPOS>MOLECULE
*****
 31 32 0 0 0
SMALL
GASTEIGER

@<TRIPOS>ATOM
      1 C         139.7585  141.2641  164.4120 C.ar    1  UNL1       -0.0185
      2 C         140.1804  142.6436  164.8229 C.ar    1  UNL1       -0.0041
      3 C         140.4355  142.9504  166.2689 C.ar    1  UNL1        0.0057
      4 C         140.2685  141.8777  167.3039 C.ar    1  UNL1        0.0696
      5 C         139.8466  140.4982  166.8930 C.ar    1  UNL1        0.0095
      6 C         139.5916  140.1914  165.4471 C.ar    1  UNL1        0.0677
      7 C         138.7385  140.0368  158.6281 C.2     1  UNL1        0.2558
      8 O         137.3685  140.2339  158.0499 O.2     1  UNL1       -0.2721
      9 N         138.9935  140.3437  160.0741 N.am    1  UNL1       -0.2775
     10 C         140.3634  140.1466  160.6523 C.3     1  UNL1        0.0938
     11 C         140.6184  140.4534  162.0983 C.3     1  UNL1        0.0259
     12 C         139.5035  140.9573  162.9660 C.3     1  UNL1        0.0257
     13 C         138.1336  141.1543  162.3878 C.3     1  UNL1        0.0259
     14 C         137.8786  140.8475  160.9418 C.3     1  UNL1        0.0938
     15 C         139.8534  139.5330  157.7604 C.3     1  UNL1        0.2272
     16 C         139.5269  138.7362  155.3091 C.3     1  UNL1        0.1748
     17 O         139.8494  139.8251  156.2891 O.3     1  UNL1       -0.3417
     18 C         140.5235  142.1845  168.7499 C.2     1  UNL1        0.3078
     19 O         140.1456  143.5235  169.3105 O.2     1  UNL1       -0.2516
     20 N         141.1564  141.1523  169.6353 N.am    1  UNL1       -0.1708
     21 H         141.4044  140.2735  169.2674 H       1  UNL1        0.2545
     22 C         141.4114  141.4591  171.0813 C.2     1  UNL1        0.3751
     23 N         140.7858  140.6119  172.1494 N.pl3   1  UNL1       -0.1313
     24 N         142.2921  142.6132  171.4592 N.pl3   1  UNL1       -0.2906
     25 H         140.2079  139.8545  171.9014 H       1  UNL1        0.3060
     26 H         142.7027  143.1692  170.7581 H       1  UNL1        0.2545
     27 H         142.4595  142.8145  172.4082 H       1  UNL1        0.2545
     28 C         139.1696  138.8118  165.0362 C.3     1  UNL1        0.4183
     29 F         138.7476  137.4323  164.6253 F       1  UNL1       -0.1659
     30 F         140.6053  138.4389  164.8135 F       1  UNL1       -0.1659
     31 F         137.7339  139.1847  165.2588 F       1  UNL1       -0.1659
@<TRIPOS>BOND
     1    16    17    1
     2    17    15    1
     3    15     7    1
     4     7     8    2
     5     7     9   am
     6     9    10    1
     7    10    11    1
     8    11    12    1
     9    12     1    1
    10     1     2   ar
    11     2     3   ar
    12     3     4   ar
    13     4    18    1
    14    18    19    2
    15    18    20   am
    16    20    22    1
    17    22    23    2
    18    22    24    1
    19     4     5   ar
    20     5     6   ar
    21     6    28    1
    22    28    29    1
    23    28    30    1
    24    28    31    1
    25    12    13    1
    26    13    14    1
    27    14     9    1
    28     6     1   ar
    29    20    21    1
    30    23    25    1
    31    24    26    1
    32    24    27    1
