@<TRIPOS>MOLECULE
*****
 27 30 0 0 0
SMALL
GASTEIGER

@<TRIPOS>ATOM
      1 N         140.0762  144.6559  158.3819 N.3     1  UNL1       -0.2711
      2 C         140.4421  144.6939  159.8360 C.3     1  UNL1        0.0939
      3 C         139.9425  143.6260  160.7633 C.3     1  UNL1        0.1123
      4 N         139.0769  142.5200  160.2364 N.am    1  UNL1       -0.2612
      5 C         138.5773  141.4521  161.1636 C.2     1  UNL1        0.3072
      6 O         137.7117  140.3461  160.6368 O.2     1  UNL1       -0.2523
      7 N         138.9432  141.4901  162.6178 N.am    1  UNL1       -0.2640
      8 C         139.7959  142.5279  163.2856 C.3     1  UNL1        0.0950
      9 C         139.9004  142.1762  164.7400 C.3     1  UNL1        0.0245
     10 C         139.1122  140.9210  164.9712 C.3     1  UNL1        0.0348
     11 C         138.2901  139.6689  165.0491 C.3     1  UNL1        0.0045
     12 C         138.1228  138.9619  166.3614 C.3     1  UNL1        0.0174
     13 C         138.7777  139.5072  167.5959 C.3     1  UNL1        0.0720
     14 N         139.5998  140.7594  167.5180 N.3     1  UNL1       -0.2737
     15 C         139.7670  141.4663  166.2057 C.3     1  UNL1        0.0737
     16 C         138.5206  140.4970  163.6596 C.3     1  UNL1        0.0962
     17 C         138.7109  142.4819  158.7822 C.3     1  UNL1        0.1123
     18 C         139.2106  143.5499  157.8549 C.3     1  UNL1        0.0939
     19 C         140.2547  141.3046  168.7524 C.3     1  UNL1        0.0625
     20 C         140.4380  140.4263  169.9545 C.3     1  UNL1        0.0481
     21 C         141.0929  140.9715  171.1889 C.3     1  UNL1        0.1435
     22 O         141.5644  142.3951  171.2213 O.3     1  UNL1       -0.3537
     23 C         141.3811  143.2734  170.0193 C.3     1  UNL1        0.1435
     24 C         140.7262  142.7282  168.7849 C.3     1  UNL1        0.0481
     25 C         142.0484  145.8821  157.2170 C.3     1  UNL1        0.0173
     26 C         140.5758  145.7239  157.4546 C.3     1  UNL1        0.0577
     27 C         139.6028  146.6336  156.7648 C.3     1  UNL1        0.0173
@<TRIPOS>BOND
     1    25    26    1
     2    26    27    1
     3    26     1    1
     4     1     2    1
     5     2     3    1
     6     3     4    1
     7     4     5   am
     8     5     6    2
     9     5     7   am
    10     7     8    1
    11     8     9    1
    12     9    10    1
    13    10    11    1
    14    11    12    1
    15    12    13    1
    16    13    14    1
    17    14    19    1
    18    19    20    1
    19    20    21    1
    20    21    22    1
    21    22    23    1
    22    23    24    1
    23    14    15    1
    24    10    16    1
    25     4    17    1
    26    17    18    1
    27    18     1    1
    28    16     7    1
    29    15    10    1
    30    24    19    1
@<TRIPOS>MOLECULE
*****
 27 30 0 0 0
SMALL
GASTEIGER

@<TRIPOS>ATOM
      1 N         143.5791  140.4489  158.3381 N.3     1  UNL1       -0.2711
      2 C         143.5964  140.9085  159.7658 C.3     1  UNL1        0.0939
      3 C         142.5635  140.4029  160.7290 C.3     1  UNL1        0.1123
      4 N         141.5135  139.4377  160.2644 N.am    1  UNL1       -0.2612
      5 C         140.4807  138.9322  161.2275 C.2     1  UNL1        0.3072
      6 O         139.4306  137.9670  160.7630 O.2     1  UNL1       -0.2523
      7 N         140.4979  139.3918  162.6552 N.am    1  UNL1       -0.2640
      8 C         141.4809  140.3489  163.2616 C.3     1  UNL1        0.0950
      9 C         141.1257  140.5236  164.7084 C.3     1  UNL1        0.0245
     10 C         139.9231  139.6745  164.9963 C.3     1  UNL1        0.0348
     11 C         138.7254  138.7820  165.1333 C.3     1  UNL1        0.0045
     12 C         138.0325  138.6547  166.4576 C.3     1  UNL1        0.0174
     13 C         138.5374  139.4200  167.6448 C.3     1  UNL1        0.0720
     14 N         139.7351  140.3125  167.5078 N.3     1  UNL1       -0.2737
     15 C         140.4280  140.4397  166.1835 C.3     1  UNL1        0.0737
     16 C         139.5351  138.9750  163.7274 C.3     1  UNL1        0.0962
     17 C         141.4962  138.9781  158.8366 C.3     1  UNL1        0.1123
     18 C         142.5291  139.4836  157.8735 C.3     1  UNL1        0.0939
     19 C         140.2400  141.0778  168.6950 C.3     1  UNL1        0.0625
     20 C         140.5009  140.3669  169.9898 C.3     1  UNL1        0.0481
     21 C         141.0057  141.1322  171.1771 C.3     1  UNL1        0.1435
     22 O         141.2497  142.6083  171.0695 O.3     1  UNL1       -0.3537
     23 C         140.9887  143.3191  169.7746 C.3     1  UNL1        0.1435
     24 C         140.4839  142.5538  168.5874 C.3     1  UNL1        0.0481
     25 C         145.2834  142.2734  157.6191 C.3     1  UNL1        0.0173
     26 C         144.6120  140.9544  157.3749 C.3     1  UNL1        0.0577
     27 C         144.9734  140.1410  156.1675 C.3     1  UNL1        0.0173
@<TRIPOS>BOND
     1    25    26    1
     2    26    27    1
     3    26     1    1
     4     1     2    1
     5     2     3    1
     6     3     4    1
     7     4     5   am
     8     5     6    2
     9     5     7   am
    10     7     8    1
    11     8     9    1
    12     9    10    1
    13    10    11    1
    14    11    12    1
    15    12    13    1
    16    13    14    1
    17    14    19    1
    18    19    20    1
    19    20    21    1
    20    21    22    1
    21    22    23    1
    22    23    24    1
    23    14    15    1
    24    10    16    1
    25     4    17    1
    26    17    18    1
    27    18     1    1
    28    16     7    1
    29    15    10    1
    30    24    19    1
@<TRIPOS>MOLECULE
*****
 27 30 0 0 0
SMALL
GASTEIGER

@<TRIPOS>ATOM
      1 N         138.3427  140.8945  158.1249 N.3     1  UNL1       -0.2711
      2 C         138.5160  141.5280  159.4735 C.3     1  UNL1        0.0939
      3 C         139.3345  140.8404  160.5257 C.3     1  UNL1        0.1123
      4 N         139.9798  139.5190  160.2293 N.am    1  UNL1       -0.2612
      5 C         140.7983  138.8314  161.2814 C.2     1  UNL1        0.3072
      6 O         141.4436  137.5101  160.9851 O.2     1  UNL1       -0.2523
      7 N         140.9715  139.4650  162.6300 N.am    1  UNL1       -0.2640
      8 C         140.3896  140.7758  163.0696 C.3     1  UNL1        0.0950
      9 C         140.8155  141.0199  164.4870 C.3     1  UNL1        0.0245
     10 C         141.6607  139.8600  164.9234 C.3     1  UNL1        0.0348
     11 C         142.4831  138.6403  165.2165 C.3     1  UNL1        0.0045
     12 C         143.1199  138.4711  166.5639 C.3     1  UNL1        0.0174
     13 C         142.9344  139.5217  167.6184 C.3     1  UNL1        0.0720
     14 N         142.1120  140.7414  167.3254 N.3     1  UNL1       -0.2737
     15 C         141.4752  140.9106  165.9779 C.3     1  UNL1        0.0737
     16 C         141.7571  138.8990  163.7757 C.3     1  UNL1        0.0962
     17 C         139.8066  138.8855  158.8808 C.3     1  UNL1        0.1123
     18 C         138.9881  139.5731  157.8286 C.3     1  UNL1        0.0939
     19 C         141.9265  141.7920  168.3798 C.3     1  UNL1        0.0625
     20 C         140.6600  142.5944  168.4245 C.3     1  UNL1        0.0481
     21 C         140.4745  143.6450  169.4789 C.3     1  UNL1        0.1435
     22 O         141.5555  143.8931  170.4888 O.3     1  UNL1       -0.3537
     23 C         142.8220  143.0907  170.4441 C.3     1  UNL1        0.1435
     24 C         143.0075  142.0401  169.3897 C.3     1  UNL1        0.0481
     25 C         136.3841  140.8598  156.4183 C.3     1  UNL1        0.0173
     26 C         137.5242  141.5822  157.0727 C.3     1  UNL1        0.0577
     27 C         137.8459  142.9923  156.6749 C.3     1  UNL1        0.0173
@<TRIPOS>BOND
     1    25    26    1
     2    26    27    1
     3    26     1    1
     4     1     2    1
     5     2     3    1
     6     3     4    1
     7     4     5   am
     8     5     6    2
     9     5     7   am
    10     7     8    1
    11     8     9    1
    12     9    10    1
    13    10    11    1
    14    11    12    1
    15    12    13    1
    16    13    14    1
    17    14    19    1
    18    19    20    1
    19    20    21    1
    20    21    22    1
    21    22    23    1
    22    23    24    1
    23    14    15    1
    24    10    16    1
    25     4    17    1
    26    17    18    1
    27    18     1    1
    28    16     7    1
    29    15    10    1
    30    24    19    1
@<TRIPOS>MOLECULE
*****
 27 30 0 0 0
SMALL
GASTEIGER

@<TRIPOS>ATOM
      1 N         138.1114  142.6414  157.3525 N.3     1  UNL1       -0.2711
      2 C         138.0658  142.1158  158.7567 C.3     1  UNL1        0.0939
      3 C         139.1815  142.4258  159.7102 C.3     1  UNL1        0.1123
      4 N         140.3429  143.2615  159.2594 N.am    1  UNL1       -0.2612
      5 C         141.4585  143.5715  160.2129 C.2     1  UNL1        0.3072
      6 O         142.6198  144.4071  159.7622 O.2     1  UNL1       -0.2523
      7 N         141.4129  143.0459  161.6170 N.am    1  UNL1       -0.2640
      8 C         140.3225  142.2019  162.2076 C.3     1  UNL1        0.0950
      9 C         140.6853  141.9064  163.6327 C.3     1  UNL1        0.0245
     10 C         142.0000  142.5678  163.9231 C.3     1  UNL1        0.0348
     11 C         143.3122  143.2806  164.0649 C.3     1  UNL1        0.0045
     12 C         144.0480  143.2441  165.3715 C.3     1  UNL1        0.0174
     13 C         143.4716  142.4950  166.5362 C.3     1  UNL1        0.0720
     14 N         142.1594  141.7822  166.3944 N.3     1  UNL1       -0.2737
     15 C         141.4236  141.8187  165.0878 C.3     1  UNL1        0.0737
     16 C         142.4497  143.2721  162.6773 C.3     1  UNL1        0.0962
     17 C         140.3885  143.7870  157.8553 C.3     1  UNL1        0.1123
     18 C         139.2728  143.4770  156.9018 C.3     1  UNL1        0.0939
     19 C         141.5830  141.0331  167.5591 C.3     1  UNL1        0.0625
     20 C         140.1000  141.0217  167.7837 C.3     1  UNL1        0.0481
     21 C         139.5236  140.2725  168.9484 C.3     1  UNL1        0.1435
     22 O         140.4302  139.5348  169.8885 O.3     1  UNL1       -0.3537
     23 C         141.9132  139.5462  169.6638 C.3     1  UNL1        0.1435
     24 C         142.4896  140.2953  168.4991 C.3     1  UNL1        0.0481
     25 C         136.2803  141.0157  156.4841 C.3     1  UNL1        0.0173
     26 C         136.9957  142.3314  156.3991 C.3     1  UNL1        0.0577
     27 C         136.5954  143.3371  155.3605 C.3     1  UNL1        0.0173
@<TRIPOS>BOND
     1    25    26    1
     2    26    27    1
     3    26     1    1
     4     1     2    1
     5     2     3    1
     6     3     4    1
     7     4     5   am
     8     5     6    2
     9     5     7   am
    10     7     8    1
    11     8     9    1
    12     9    10    1
    13    10    11    1
    14    11    12    1
    15    12    13    1
    16    13    14    1
    17    14    19    1
    18    19    20    1
    19    20    21    1
    20    21    22    1
    21    22    23    1
    22    23    24    1
    23    14    15    1
    24    10    16    1
    25     4    17    1
    26    17    18    1
    27    18     1    1
    28    16     7    1
    29    15    10    1
    30    24    19    1
@<TRIPOS>MOLECULE
*****
 27 30 0 0 0
SMALL
GASTEIGER

@<TRIPOS>ATOM
      1 N         143.7555  142.4606  162.9078 N.3     1  UNL1       -0.2711
      2 C         143.4654  143.7012  162.1162 C.3     1  UNL1        0.0939
      3 C         142.4945  143.6522  160.9739 C.3     1  UNL1        0.1123
      4 N         141.8136  142.3624  160.6231 N.am    1  UNL1       -0.2612
      5 C         140.8427  142.3134  159.4808 C.2     1  UNL1        0.3072
      6 O         140.1618  141.0237  159.1300 O.2     1  UNL1       -0.2523
      7 N         140.5527  143.5541  158.6893 N.am    1  UNL1       -0.2640
      8 C         141.1537  144.9087  158.9214 C.3     1  UNL1        0.0950
      9 C         140.5832  145.8499  157.9022 C.3     1  UNL1        0.0245
     10 C         139.6295  145.0769  157.0401 C.3     1  UNL1        0.0348
     11 C         138.7114  144.1786  156.2656 C.3     1  UNL1        0.0045
     12 C         137.9162  144.7280  155.1185 C.3     1  UNL1        0.0174
     13 C         138.0391  146.1758  154.7461 C.3     1  UNL1        0.0720
     14 N         138.9572  147.0742  155.5206 N.3     1  UNL1       -0.2737
     15 C         139.7524  146.5247  156.6676 C.3     1  UNL1        0.0737
     16 C         139.6106  143.6581  157.5266 C.3     1  UNL1        0.0962
     17 C         142.1036  141.1218  161.4146 C.3     1  UNL1        0.1123
     18 C         143.0746  141.1708  162.5570 C.3     1  UNL1        0.0939
     19 C         139.0801  148.5220  155.1481 C.3     1  UNL1        0.0625
     20 C         138.4652  149.5757  156.0207 C.3     1  UNL1        0.0481
     21 C         138.5881  151.0235  155.6482 C.3     1  UNL1        0.1435
     22 O         139.3259  151.4176  154.4031 O.3     1  UNL1       -0.3537
     23 C         139.9408  150.3639  153.5305 C.3     1  UNL1        0.1435
     24 C         139.8179  148.9160  153.9030 C.3     1  UNL1        0.0481
     25 C         145.9418  141.6306  164.0396 C.3     1  UNL1        0.0173
     26 C         144.7264  142.5096  164.0501 C.3     1  UNL1        0.0577
     27 C         144.4818  143.4376  165.2030 C.3     1  UNL1        0.0173
@<TRIPOS>BOND
     1    25    26    1
     2    26    27    1
     3    26     1    1
     4     1     2    1
     5     2     3    1
     6     3     4    1
     7     4     5   am
     8     5     6    2
     9     5     7   am
    10     7     8    1
    11     8     9    1
    12     9    10    1
    13    10    11    1
    14    11    12    1
    15    12    13    1
    16    13    14    1
    17    14    19    1
    18    19    20    1
    19    20    21    1
    20    21    22    1
    21    22    23    1
    22    23    24    1
    23    14    15    1
    24    10    16    1
    25     4    17    1
    26    17    18    1
    27    18     1    1
    28    16     7    1
    29    15    10    1
    30    24    19    1
@<TRIPOS>MOLECULE
*****
 27 30 0 0 0
SMALL
GASTEIGER

@<TRIPOS>ATOM
      1 N         139.7334  143.2344  162.8623 N.3     1  UNL1       -0.2711
      2 C         139.8028  141.8209  162.3650 C.3     1  UNL1        0.0939
      3 C         140.6419  141.4876  161.1672 C.3     1  UNL1        0.1123
      4 N         141.4116  142.5679  160.4666 N.am    1  UNL1       -0.2612
      5 C         142.2507  142.2346  159.2688 C.2     1  UNL1        0.3072
      6 O         143.0204  143.3148  158.5682 O.2     1  UNL1       -0.2523
      7 N         142.3201  140.8212  158.7715 N.am    1  UNL1       -0.2640
      8 C         141.6094  139.6414  159.3660 C.3     1  UNL1        0.0950
      9 C         141.9625  138.4304  158.5543 C.3     1  UNL1        0.0245
     10 C         142.8914  138.8616  157.4582 C.3     1  UNL1        0.0348
     11 C         143.8078  139.4382  156.4202 C.3     1  UNL1        0.0045
     12 C         144.4099  138.5482  155.3737 C.3     1  UNL1        0.0174
     13 C         144.0955  137.0815  155.3652 C.3     1  UNL1        0.0720
     14 N         143.1791  136.5049  156.4032 N.3     1  UNL1       -0.2737
     15 C         142.5770  137.3949  157.4497 C.3     1  UNL1        0.0737
     16 C         143.1124  140.3392  157.5925 C.3     1  UNL1        0.0962
     17 C         141.3422  143.9814  160.9639 C.3     1  UNL1        0.1123
     18 C         140.5031  144.3146  162.1617 C.3     1  UNL1        0.0939
     19 C         142.8647  135.0382  156.3947 C.3     1  UNL1        0.0625
     20 C         143.6177  134.1046  157.2954 C.3     1  UNL1        0.0481
     21 C         143.3033  132.6379  157.2869 C.3     1  UNL1        0.1435
     22 O         142.2359  132.1049  156.3778 O.3     1  UNL1       -0.3537
     23 C         141.4829  133.0386  155.4771 C.3     1  UNL1        0.1435
     24 C         141.7973  134.5052  155.4856 C.3     1  UNL1        0.0481
     25 C         137.7461  142.6811  164.4418 C.3     1  UNL1        0.0173
     26 C         138.8943  143.5677  164.0602 C.3     1  UNL1        0.0577
     27 C         139.2034  144.7877  164.8764 C.3     1  UNL1        0.0173
@<TRIPOS>BOND
     1    25    26    1
     2    26    27    1
     3    26     1    1
     4     1     2    1
     5     2     3    1
     6     3     4    1
     7     4     5   am
     8     5     6    2
     9     5     7   am
    10     7     8    1
    11     8     9    1
    12     9    10    1
    13    10    11    1
    14    11    12    1
    15    12    13    1
    16    13    14    1
    17    14    19    1
    18    19    20    1
    19    20    21    1
    20    21    22    1
    21    22    23    1
    22    23    24    1
    23    14    15    1
    24    10    16    1
    25     4    17    1
    26    17    18    1
    27    18     1    1
    28    16     7    1
    29    15    10    1
    30    24    19    1
@<TRIPOS>MOLECULE
*****
 27 30 0 0 0
SMALL
GASTEIGER

@<TRIPOS>ATOM
      1 N         145.1132  141.8893  157.9881 N.3     1  UNL1       -0.2711
      2 C         145.0334  142.3293  159.4198 C.3     1  UNL1        0.0939
      3 C         143.9908  141.7456  160.3268 C.3     1  UNL1        0.1123
      4 N         143.0281  140.7219  159.8019 N.am    1  UNL1       -0.2612
      5 C         141.9857  140.1383  160.7087 C.2     1  UNL1        0.3072
      6 O         141.0230  139.1147  160.1839 O.2     1  UNL1       -0.2523
      7 N         141.9058  140.5783  162.1405 N.am    1  UNL1       -0.2640
      8 C         142.7955  141.5877  162.8037 C.3     1  UNL1        0.0950
      9 C         142.3618  141.7193  164.2336 C.3     1  UNL1        0.0245
     10 C         141.2040  140.7913  164.4542 C.3     1  UNL1        0.0348
     11 C         140.0610  139.8225  164.5239 C.3     1  UNL1        0.0045
     12 C         139.3160  139.6330  165.8119 C.3     1  UNL1        0.0174
     13 C         139.7139  140.4124  167.0302 C.3     1  UNL1        0.0720
     14 N         140.8569  141.3812  166.9605 N.3     1  UNL1       -0.2737
     15 C         141.6019  141.5707  165.6725 C.3     1  UNL1        0.0737
     16 C         140.9222  140.0861  163.1606 C.3     1  UNL1        0.0962
     17 C         143.1080  140.2820  158.3701 C.3     1  UNL1        0.1123
     18 C         144.1505  140.8656  157.4631 C.3     1  UNL1        0.0939
     19 C         141.2548  142.1606  168.1788 C.3     1  UNL1        0.0625
     20 C         142.5867  141.9158  168.8238 C.3     1  UNL1        0.0481
     21 C         142.9846  142.6952  170.0421 C.3     1  UNL1        0.1435
     22 O         142.0506  143.7193  170.6154 O.3     1  UNL1       -0.3537
     23 C         140.7187  143.9641  169.9704 C.3     1  UNL1        0.1435
     24 C         140.3208  143.1847  168.7521 C.3     1  UNL1        0.0481
     25 C         145.9688  142.4232  155.5937 C.3     1  UNL1        0.0173
     26 C         146.1558  142.4730  157.0811 C.3     1  UNL1        0.0577
     27 C         147.3853  143.1065  157.6617 C.3     1  UNL1        0.0173
@<TRIPOS>BOND
     1    25    26    1
     2    26    27    1
     3    26     1    1
     4     1     2    1
     5     2     3    1
     6     3     4    1
     7     4     5   am
     8     5     6    2
     9     5     7   am
    10     7     8    1
    11     8     9    1
    12     9    10    1
    13    10    11    1
    14    11    12    1
    15    12    13    1
    16    13    14    1
    17    14    19    1
    18    19    20    1
    19    20    21    1
    20    21    22    1
    21    22    23    1
    22    23    24    1
    23    14    15    1
    24    10    16    1
    25     4    17    1
    26    17    18    1
    27    18     1    1
    28    16     7    1
    29    15    10    1
    30    24    19    1
@<TRIPOS>MOLECULE
*****
 27 30 0 0 0
SMALL
GASTEIGER

@<TRIPOS>ATOM
      1 N         139.8331  144.4657  156.7499 N.3     1  UNL1       -0.2711
      2 C         139.9785  144.5257  158.2416 C.3     1  UNL1        0.0939
      3 C         139.7305  143.2995  159.0692 C.3     1  UNL1        0.1123
      4 N         139.3371  142.0133  158.4051 N.am    1  UNL1       -0.2612
      5 C         139.0891  140.7872  159.2327 C.2     1  UNL1        0.3072
      6 O         138.6956  139.5010  158.5686 O.2     1  UNL1       -0.2523
      7 N         139.2345  140.8471  160.7244 N.am    1  UNL1       -0.2640
      8 C         139.6195  142.0559  161.5249 C.3     1  UNL1        0.0950
      9 C         139.6434  141.6647  162.9727 C.3     1  UNL1        0.0245
     10 C         139.2730  140.2141  163.0672 C.3     1  UNL1        0.0348
     11 C         138.8895  138.7654  163.0052 C.3     1  UNL1        0.0045
     12 C         138.7895  137.9613  164.2675 C.3     1  UNL1        0.0174
     13 C         139.0730  138.6061  165.5918 C.3     1  UNL1        0.0720
     14 N         139.4565  140.0549  165.6539 N.3     1  UNL1       -0.2737
     15 C         139.5565  140.8589  164.3916 C.3     1  UNL1        0.0737
     16 C         139.0203  139.7089  161.6776 C.3     1  UNL1        0.0962
     17 C         139.1917  141.9533  156.9134 C.3     1  UNL1        0.1123
     18 C         139.4397  143.1795  156.0857 C.3     1  UNL1        0.0939
     19 C         139.7399  140.6996  166.9782 C.3     1  UNL1        0.0625
     20 C         139.3936  139.9840  168.2502 C.3     1  UNL1        0.0481
     21 C         139.6771  140.6288  169.5746 C.3     1  UNL1        0.1435
     22 O         140.3068  141.9892  169.6270 O.3     1  UNL1       -0.3537
     23 C         140.6531  142.7048  168.3550 C.3     1  UNL1        0.1435
     24 C         140.3696  142.0600  167.0306 C.3     1  UNL1        0.0481
     25 C         139.2275  146.9105  156.1126 C.3     1  UNL1        0.0173
     26 C         140.0811  145.6919  155.9222 C.3     1  UNL1        0.0577
     27 C         141.1828  145.6994  154.9042 C.3     1  UNL1        0.0173
@<TRIPOS>BOND
     1    25    26    1
     2    26    27    1
     3    26     1    1
     4     1     2    1
     5     2     3    1
     6     3     4    1
     7     4     5   am
     8     5     6    2
     9     5     7   am
    10     7     8    1
    11     8     9    1
    12     9    10    1
    13    10    11    1
    14    11    12    1
    15    12    13    1
    16    13    14    1
    17    14    19    1
    18    19    20    1
    19    20    21    1
    20    21    22    1
    21    22    23    1
    22    23    24    1
    23    14    15    1
    24    10    16    1
    25     4    17    1
    26    17    18    1
    27    18     1    1
    28    16     7    1
    29    15    10    1
    30    24    19    1
@<TRIPOS>MOLECULE
*****
 27 30 0 0 0
SMALL
GASTEIGER

@<TRIPOS>ATOM
      1 N         142.7589  141.0386  166.1311 N.3     1  UNL1       -0.2711
      2 C         142.6256  139.8472  165.2294 C.3     1  UNL1        0.0939
      3 C         142.7815  140.0080  163.7462 C.3     1  UNL1        0.1123
      4 N         143.0709  141.3601  163.1647 N.am    1  UNL1       -0.2612
      5 C         143.2268  141.5209  161.6816 C.2     1  UNL1        0.3072
      6 O         143.5162  142.8729  161.1000 O.2     1  UNL1       -0.2523
      7 N         143.0935  140.3295  160.7800 N.am    1  UNL1       -0.2640
      8 C         142.8072  138.9226  161.2144 C.3     1  UNL1        0.0950
      9 C         142.7598  138.0595  159.9885 C.3     1  UNL1        0.0245
     10 C         143.0169  138.9330  158.7964 C.3     1  UNL1        0.0348
     11 C         143.2865  139.9261  157.7051 C.3     1  UNL1        0.0045
     12 C         143.3298  139.4757  156.2750 C.3     1  UNL1        0.0174
     13 C         143.1034  138.0321  155.9362 C.3     1  UNL1        0.0720
     14 N         142.8338  137.0389  157.0274 N.3     1  UNL1       -0.2737
     15 C         142.7905  137.4894  158.4575 C.3     1  UNL1        0.0737
     16 C         143.2232  140.3359  159.2855 C.3     1  UNL1        0.0962
     17 C         143.2042  142.5515  164.0663 C.3     1  UNL1        0.1123
     18 C         143.0482  142.3907  165.5495 C.3     1  UNL1        0.0939
     19 C         142.6074  135.5953  156.6886 C.3     1  UNL1        0.0625
     20 C         143.3656  134.5260  157.4177 C.3     1  UNL1        0.0481
     21 C         143.1393  133.0824  157.0789 C.3     1  UNL1        0.1435
     22 O         142.1547  132.7082  156.0109 O.3     1  UNL1       -0.3537
     23 C         141.3965  133.7775  155.2818 C.3     1  UNL1        0.1435
     24 C         141.6229  135.2211  155.6207 C.3     1  UNL1        0.0481
     25 C         142.6118  139.5079  168.2253 C.3     1  UNL1        0.0173
     26 C         142.6029  140.8778  167.6143 C.3     1  UNL1        0.0577
     27 C         142.4380  142.0871  168.4865 C.3     1  UNL1        0.0173
@<TRIPOS>BOND
     1    25    26    1
     2    26    27    1
     3    26     1    1
     4     1     2    1
     5     2     3    1
     6     3     4    1
     7     4     5   am
     8     5     6    2
     9     5     7   am
    10     7     8    1
    11     8     9    1
    12     9    10    1
    13    10    11    1
    14    11    12    1
    15    12    13    1
    16    13    14    1
    17    14    19    1
    18    19    20    1
    19    20    21    1
    20    21    22    1
    21    22    23    1
    22    23    24    1
    23    14    15    1
    24    10    16    1
    25     4    17    1
    26    17    18    1
    27    18     1    1
    28    16     7    1
    29    15    10    1
    30    24    19    1
