@<TRIPOS>MOLECULE
*****
 42 45 0 0 0
SMALL
GASTEIGER

@<TRIPOS>ATOM
      1 C         141.9701  140.8501  160.6564 C.3     1  UNL1        0.0436
      2 C         142.3675  141.6906  161.8335 C.3     1  UNL1        0.0194
      3 C         143.6351  142.4914  161.7895 C.3     1  UNL1        0.0577
      4 C         144.5053  142.4516  160.5683 C.3     1  UNL1        0.0177
      5 C         144.1079  141.6111  159.3912 C.3     1  UNL1        0.0212
      6 C         142.8403  140.8103  159.4353 C.3     1  UNL1        0.0771
      7 N         142.4429  139.9698  158.2582 N.am    1  UNL1       -0.2797
      8 C         141.8584  140.4739  156.9720 C.3     1  UNL1        0.0956
      9 C         141.6145  139.2933  156.0795 C.3     1  UNL1        0.0505
     10 C         142.0482  138.0594  156.8140 C.3     1  UNL1        0.1507
     11 C         142.5602  138.4776  158.1605 C.2     1  UNL1        0.2435
     12 O         143.0955  137.5639  159.2229 O.2     1  UNL1       -0.2731
     13 N         141.9816  136.6542  156.2935 N.am    1  UNL1       -0.2948
     14 C         143.2024  136.0154  155.7008 C.2     1  UNL1        0.2461
     15 O         144.4898  136.7817  155.6285 O.2     1  UNL1       -0.2701
     16 H         141.1366  136.1512  156.3410 H       1  UNL1        0.1501
     17 C         143.1358  134.6102  155.1803 C.ar    1  UNL1        0.0533
     18 C         142.4329  134.3219  153.8869 C.ar    1  UNL1        0.0045
     19 C         142.3663  132.9166  153.3664 C.ar    1  UNL1        0.0001
     20 C         143.0027  131.7997  154.1393 C.ar    1  UNL1        0.0039
     21 C         143.7057  132.0879  155.4327 C.ar    1  UNL1        0.0716
     22 C         143.7722  133.4932  155.9532 C.ar    1  UNL1        0.0084
     23 C         144.3420  130.9709  156.2056 C.3     1  UNL1        0.4186
     24 F         144.9784  129.8540  156.9785 F       1  UNL1       -0.1659
     25 F         143.0713  130.1798  156.1086 F       1  UNL1       -0.1659
     26 F         145.6127  131.7621  156.3027 F       1  UNL1       -0.1659
     27 N         144.0326  143.3319  162.9666 N.3     1  UNL1       -0.2741
     28 C         143.7234  144.7997  162.9786 C.3     1  UNL1        0.0896
     29 C         144.7391  142.7047  164.1316 C.3     1  UNL1        0.0576
     30 C         144.5259  143.2420  165.5158 C.3     1  UNL1        0.0173
     31 C         145.6590  141.5403  163.9125 C.3     1  UNL1        0.0173
     32 C         140.7025  140.0493  160.7005 C.3     1  UNL1        0.1576
     33 S         140.0719  139.7153  162.0198 S.O2    1  UNL1        0.0087
     34 O         141.0347  138.5781  162.1921 O.2     1  UNL1       -0.1686
     35 O         139.1091  140.8525  161.8475 O.2     1  UNL1       -0.1686
     36 C         137.5492  138.3794  167.2973 C.3     1  UNL1        0.0310
     37 C         138.1798  138.7134  165.9779 C.ar    1  UNL1       -0.0218
     38 C         138.1397  140.1215  165.4624 C.ar    1  UNL1       -0.0029
     39 C         138.7703  140.4554  164.1431 C.ar    1  UNL1        0.0180
     40 C         139.4412  139.3813  163.3392 C.ar    1  UNL1        0.1056
     41 C         139.4814  137.9732  163.8546 C.ar    1  UNL1        0.0180
     42 C         138.8507  137.6392  165.1741 C.ar    1  UNL1       -0.0029
@<TRIPOS>BOND
     1    36    37    1
     2    37    38   ar
     3    38    39   ar
     4    39    40   ar
     5    40    33    1
     6    33    34    2
     7    33    35    2
     8    33    32    1
     9     1    32    1
    10     1     2    1
    11     2     3    1
    12     3    27    1
    13    27    28    1
    14    27    29    1
    15    29    30    1
    16    29    31    1
    17     3     4    1
    18     4     5    1
    19     5     6    1
    20     6     7    1
    21     7     8    1
    22     8     9    1
    23     9    10    1
    24    10    13    1
    25    13    14   am
    26    14    15    2
    27    14    17    1
    28    17    18   ar
    29    18    19   ar
    30    19    20   ar
    31    20    21   ar
    32    21    23    1
    33    23    24    1
    34    23    25    1
    35    23    26    1
    36    21    22   ar
    37    10    11    1
    38    11    12    2
    39    40    41   ar
    40    41    42   ar
    41    42    37   ar
    42     6     1    1
    43    11     7   am
    44    22    17   ar
    45    13    16    1
@<TRIPOS>MOLECULE
*****
 42 45 0 0 0
SMALL
GASTEIGER

@<TRIPOS>ATOM
      1 C         140.0868  138.6229  159.8230 C.3     1  UNL1        0.0436
      2 C         140.0648  138.6248  158.3231 C.3     1  UNL1        0.0194
      3 C         141.3200  138.3357  157.5543 C.3     1  UNL1        0.0577
      4 C         142.5970  138.0448  158.2853 C.3     1  UNL1        0.0177
      5 C         142.6190  138.0429  159.7851 C.3     1  UNL1        0.0212
      6 C         141.3640  138.3320  160.5540 C.3     1  UNL1        0.0771
      7 N         141.3860  138.3302  162.0538 N.am    1  UNL1       -0.2797
      8 C         140.8530  137.2453  162.9421 C.3     1  UNL1        0.0956
      9 C         141.0824  137.6575  164.3660 C.3     1  UNL1        0.0505
     10 C         141.7572  138.9971  164.3577 C.3     1  UNL1        0.1507
     11 C         141.9448  139.4128  162.9287 C.2     1  UNL1        0.2435
     12 O         142.5798  140.6875  162.4574 O.2     1  UNL1       -0.2731
     13 N         142.1717  139.7831  165.5663 N.am    1  UNL1       -0.2948
     14 C         141.1570  140.5907  166.3198 C.2     1  UNL1        0.2461
     15 O         139.7278  140.6125  165.8650 O.2     1  UNL1       -0.2701
     16 H         143.1097  139.7688  165.8648 H       1  UNL1        0.1501
     17 C         141.5714  141.3767  167.5284 C.ar    1  UNL1        0.0533
     18 C         143.0252  141.5139  167.8715 C.ar    1  UNL1        0.0045
     19 C         143.4396  142.2999  169.0801 C.ar    1  UNL1        0.0001
     20 C         142.4002  142.9486  169.9455 C.ar    1  UNL1        0.0039
     21 C         140.9465  142.8113  169.6023 C.ar    1  UNL1        0.0716
     22 C         140.5321  142.0253  168.3938 C.ar    1  UNL1        0.0084
     23 C         139.9071  143.4600  170.4677 C.3     1  UNL1        0.4186
     24 F         138.8678  144.1087  171.3331 F       1  UNL1       -0.1659
     25 F         139.2433  142.1299  170.6675 F       1  UNL1       -0.1659
     26 F         140.5710  144.7902  170.2680 F       1  UNL1       -0.1659
     27 N         141.2980  138.3375  156.0545 N.3     1  UNL1       -0.2741
     28 C         141.0964  139.6235  155.3089 C.3     1  UNL1        0.0896
     29 C         141.4775  137.0535  155.3002 C.3     1  UNL1        0.0576
     30 C         142.7918  136.7452  154.6463 C.3     1  UNL1        0.0173
     31 C         140.3427  136.0777  155.1997 C.3     1  UNL1        0.0173
     32 C         138.8317  138.9120  160.5918 C.3     1  UNL1        0.1576
     33 S         138.7743  140.0903  161.5182 S.O2    1  UNL1        0.0087
     34 O         138.1730  139.2230  162.5841 O.2     1  UNL1       -0.1686
     35 O         139.3756  140.9576  160.4523 O.2     1  UNL1       -0.1686
     36 C         138.5446  144.8038  165.2236 C.3     1  UNL1        0.0310
     37 C         138.6021  143.6255  164.2973 C.ar    1  UNL1       -0.0218
     38 C         137.4464  142.6719  164.2242 C.ar    1  UNL1       -0.0029
     39 C         137.5039  141.4936  163.2978 C.ar    1  UNL1        0.0180
     40 C         138.7169  141.2687  162.4446 C.ar    1  UNL1        0.1056
     41 C         139.8725  142.2223  162.5177 C.ar    1  UNL1        0.0180
     42 C         139.8151  143.4007  163.4440 C.ar    1  UNL1       -0.0029
@<TRIPOS>BOND
     1    36    37    1
     2    37    38   ar
     3    38    39   ar
     4    39    40   ar
     5    40    33    1
     6    33    34    2
     7    33    35    2
     8    33    32    1
     9     1    32    1
    10     1     2    1
    11     2     3    1
    12     3    27    1
    13    27    28    1
    14    27    29    1
    15    29    30    1
    16    29    31    1
    17     3     4    1
    18     4     5    1
    19     5     6    1
    20     6     7    1
    21     7     8    1
    22     8     9    1
    23     9    10    1
    24    10    13    1
    25    13    14   am
    26    14    15    2
    27    14    17    1
    28    17    18   ar
    29    18    19   ar
    30    19    20   ar
    31    20    21   ar
    32    21    23    1
    33    23    24    1
    34    23    25    1
    35    23    26    1
    36    21    22   ar
    37    10    11    1
    38    11    12    2
    39    40    41   ar
    40    41    42   ar
    41    42    37   ar
    42     6     1    1
    43    11     7   am
    44    22    17   ar
    45    13    16    1
@<TRIPOS>MOLECULE
*****
 42 45 0 0 0
SMALL
GASTEIGER

@<TRIPOS>ATOM
      1 C         140.0292  138.4625  160.1615 C.3     1  UNL1        0.0436
      2 C         140.0512  138.5248  158.6630 C.3     1  UNL1        0.0194
      3 C         141.3428  138.3377  157.9234 C.3     1  UNL1        0.0577
      4 C         142.6123  138.0884  158.6825 C.3     1  UNL1        0.0177
      5 C         142.5903  138.0262  160.1810 C.3     1  UNL1        0.0212
      6 C         141.2988  138.2132  160.9205 C.3     1  UNL1        0.0771
      7 N         141.2768  138.1509  162.4191 N.am    1  UNL1       -0.2797
      8 C         141.0071  136.9295  163.2469 C.3     1  UNL1        0.0956
      9 C         141.0842  137.3228  164.6924 C.3     1  UNL1        0.0505
     10 C         141.4016  138.7874  164.7579 C.3     1  UNL1        0.1507
     11 C         141.5206  139.2992  163.3529 C.2     1  UNL1        0.2435
     12 O         141.8292  140.7113  162.9522 O.2     1  UNL1       -0.2731
     13 N         141.5703  139.5979  166.0087 N.am    1  UNL1       -0.2948
     14 C         140.4160  139.7729  166.9504 C.2     1  UNL1        0.2461
     15 O         139.0929  139.1375  166.6413 O.2     1  UNL1       -0.2701
     16 H         142.4387  140.0150  166.2116 H       1  UNL1        0.1501
     17 C         140.5847  140.5834  168.2012 C.ar    1  UNL1        0.0533
     18 C         139.4202  140.7903  169.1237 C.ar    1  UNL1        0.0045
     19 C         139.5890  141.6008  170.3746 C.ar    1  UNL1        0.0001
     20 C         140.9223  142.2045  170.7029 C.ar    1  UNL1        0.0039
     21 C         142.0869  141.9977  169.7804 C.ar    1  UNL1        0.0716
     22 C         141.9181  141.1871  168.5295 C.ar    1  UNL1        0.0084
     23 C         143.4202  142.6014  170.1087 C.3     1  UNL1        0.4186
     24 F         144.7535  143.2050  170.4371 F       1  UNL1       -0.1659
     25 F         144.1015  141.3468  169.6485 F       1  UNL1       -0.1659
     26 F         142.7388  143.8559  170.5690 F       1  UNL1       -0.1659
     27 N         141.3648  138.4000  156.4249 N.3     1  UNL1       -0.2741
     28 C         141.7960  139.6591  155.7328 C.3     1  UNL1        0.0896
     29 C         140.9557  137.2033  155.6184 C.3     1  UNL1        0.0576
     30 C         142.0008  136.3157  155.0103 C.3     1  UNL1        0.0173
     31 C         139.5013  136.8941  155.4200 C.3     1  UNL1        0.0173
     32 C         138.7377  138.6496  160.9010 C.3     1  UNL1        0.1576
     33 S         138.5287  139.8693  161.7487 S.O2    1  UNL1        0.0087
     34 O         138.0933  139.0006  162.8914 O.2     1  UNL1       -0.1686
     35 O         138.9640  140.7380  160.6060 O.2     1  UNL1       -0.1686
     36 C         137.6927  144.7484  165.1393 C.3     1  UNL1        0.0310
     37 C         137.9017  143.5287  164.2916 C.ar    1  UNL1       -0.0218
     38 C         138.1817  142.2046  164.9387 C.ar    1  UNL1       -0.0029
     39 C         138.3907  140.9849  164.0910 C.ar    1  UNL1        0.0180
     40 C         138.3197  141.0891  162.5963 C.ar    1  UNL1        0.1056
     41 C         138.0396  142.4130  161.9493 C.ar    1  UNL1        0.0180
     42 C         137.8307  143.6329  162.7969 C.ar    1  UNL1       -0.0029
@<TRIPOS>BOND
     1    36    37    1
     2    37    38   ar
     3    38    39   ar
     4    39    40   ar
     5    40    33    1
     6    33    34    2
     7    33    35    2
     8    33    32    1
     9     1    32    1
    10     1     2    1
    11     2     3    1
    12     3    27    1
    13    27    28    1
    14    27    29    1
    15    29    30    1
    16    29    31    1
    17     3     4    1
    18     4     5    1
    19     5     6    1
    20     6     7    1
    21     7     8    1
    22     8     9    1
    23     9    10    1
    24    10    13    1
    25    13    14   am
    26    14    15    2
    27    14    17    1
    28    17    18   ar
    29    18    19   ar
    30    19    20   ar
    31    20    21   ar
    32    21    23    1
    33    23    24    1
    34    23    25    1
    35    23    26    1
    36    21    22   ar
    37    10    11    1
    38    11    12    2
    39    40    41   ar
    40    41    42   ar
    41    42    37   ar
    42     6     1    1
    43    11     7   am
    44    22    17   ar
    45    13    16    1
@<TRIPOS>MOLECULE
*****
 42 45 0 0 0
SMALL
GASTEIGER

@<TRIPOS>ATOM
      1 C         141.9513  141.8665  161.1006 C.3     1  UNL1        0.0436
      2 C         141.2941  142.9199  161.9424 C.3     1  UNL1        0.0194
      3 C         140.2745  143.8372  161.3349 C.3     1  UNL1        0.0577
      4 C         139.9121  143.7010  159.8857 C.3     1  UNL1        0.0177
      5 C         140.5692  142.6477  159.0440 C.3     1  UNL1        0.0212
      6 C         141.5888  141.7304  159.6514 C.3     1  UNL1        0.0771
      7 N         142.2460  140.6770  158.8097 N.am    1  UNL1       -0.2797
      8 C         143.2218  140.9196  157.6967 C.3     1  UNL1        0.0956
      9 C         143.6217  139.5886  157.1323 C.3     1  UNL1        0.0505
     10 C         142.8929  138.5233  157.8965 C.3     1  UNL1        0.1507
     11 C         142.0427  139.1960  158.9332 C.2     1  UNL1        0.2435
     12 O         141.1465  138.5083  159.9201 O.2     1  UNL1       -0.2731
     13 N         142.9962  137.0449  157.6648 N.am    1  UNL1       -0.2948
     14 C         142.2243  136.4049  156.5493 C.2     1  UNL1        0.2461
     15 O         141.3491  137.2432  155.6654 O.2     1  UNL1       -0.2701
     16 H         143.5706  136.4947  158.2449 H       1  UNL1        0.1501
     17 C         142.3276  134.9265  156.3175 C.ar    1  UNL1        0.0533
     18 C         141.4232  134.2579  155.3250 C.ar    1  UNL1        0.0045
     19 C         141.5266  132.7795  155.0933 C.ar    1  UNL1        0.0001
     20 C         142.5342  131.9697  155.8541 C.ar    1  UNL1        0.0039
     21 C         143.4386  132.6383  156.8466 C.ar    1  UNL1        0.0716
     22 C         143.3353  134.1168  157.0783 C.ar    1  UNL1        0.0084
     23 C         144.4463  131.8285  157.6074 C.3     1  UNL1        0.4186
     24 F         145.4540  131.0188  158.3682 F       1  UNL1       -0.1659
     25 F         143.7314  130.5698  157.2144 F       1  UNL1       -0.1659
     26 F         145.1611  133.0873  158.0004 F       1  UNL1       -0.1659
     27 N         139.6173  144.8906  162.1766 N.3     1  UNL1       -0.2741
     28 C         139.7354  146.3366  161.7956 C.3     1  UNL1        0.0896
     29 C         138.8420  144.4980  163.3992 C.3     1  UNL1        0.0576
     30 C         137.5347  143.7761  163.2585 C.3     1  UNL1        0.0173
     31 C         139.3741  144.8272  164.7625 C.3     1  UNL1        0.0173
     32 C         142.9709  140.9492  161.7081 C.3     1  UNL1        0.1576
     33 S         142.9003  140.6110  163.1677 S.O2    1  UNL1        0.0087
     34 O         144.0014  141.5903  163.4478 O.2     1  UNL1       -0.1686
     35 O         141.7992  139.6318  162.8876 O.2     1  UNL1       -0.1686
     36 C         142.6180  139.2580  169.0064 C.3     1  UNL1        0.0310
     37 C         142.6885  139.5963  167.5468 C.ar    1  UNL1       -0.0218
     38 C         143.2811  138.6166  166.5776 C.ar    1  UNL1       -0.0029
     39 C         143.3517  138.9549  165.1180 C.ar    1  UNL1        0.0180
     40 C         142.8297  140.2728  164.6274 C.ar    1  UNL1        0.1056
     41 C         142.2372  141.2524  165.5965 C.ar    1  UNL1        0.0180
     42 C         142.1666  140.9142  167.0562 C.ar    1  UNL1       -0.0029
@<TRIPOS>BOND
     1    36    37    1
     2    37    38   ar
     3    38    39   ar
     4    39    40   ar
     5    40    33    1
     6    33    34    2
     7    33    35    2
     8    33    32    1
     9     1    32    1
    10     1     2    1
    11     2     3    1
    12     3    27    1
    13    27    28    1
    14    27    29    1
    15    29    30    1
    16    29    31    1
    17     3     4    1
    18     4     5    1
    19     5     6    1
    20     6     7    1
    21     7     8    1
    22     8     9    1
    23     9    10    1
    24    10    13    1
    25    13    14   am
    26    14    15    2
    27    14    17    1
    28    17    18   ar
    29    18    19   ar
    30    19    20   ar
    31    20    21   ar
    32    21    23    1
    33    23    24    1
    34    23    25    1
    35    23    26    1
    36    21    22   ar
    37    10    11    1
    38    11    12    2
    39    40    41   ar
    40    41    42   ar
    41    42    37   ar
    42     6     1    1
    43    11     7   am
    44    22    17   ar
    45    13    16    1
@<TRIPOS>MOLECULE
*****
 42 45 0 0 0
SMALL
GASTEIGER

@<TRIPOS>ATOM
      1 C         141.4333  142.4417  159.0489 C.3     1  UNL1        0.0436
      2 C         140.5951  142.7758  157.8506 C.3     1  UNL1        0.0194
      3 C         140.1951  144.1974  157.5880 C.3     1  UNL1        0.0577
      4 C         140.6334  145.2849  158.5235 C.3     1  UNL1        0.0177
      5 C         141.4716  144.9508  159.7217 C.3     1  UNL1        0.0212
      6 C         141.8716  143.5292  159.9844 C.3     1  UNL1        0.0771
      7 N         142.7098  143.1951  161.1827 N.am    1  UNL1       -0.2797
      8 C         144.1843  142.9198  161.1781 C.3     1  UNL1        0.0956
      9 C         144.6065  142.6322  162.5885 C.3     1  UNL1        0.0505
     10 C         143.3929  142.7298  163.4647 C.3     1  UNL1        0.1507
     11 C         142.2207  143.0777  162.5958 C.2     1  UNL1        0.2435
     12 O         140.8075  143.2738  163.0589 O.2     1  UNL1       -0.2731
     13 N         143.3577  142.5169  164.9491 N.am    1  UNL1       -0.2948
     14 C         142.9275  141.1927  165.5068 C.2     1  UNL1        0.2461
     15 O         142.5325  140.0812  164.5802 O.2     1  UNL1       -0.2701
     16 H         143.6170  143.2464  165.5572 H       1  UNL1        0.1501
     17 C         142.8923  140.9798  166.9912 C.ar    1  UNL1        0.0533
     18 C         142.5688  139.6247  167.5471 C.ar    1  UNL1        0.0045
     19 C         142.5336  139.4118  169.0315 C.ar    1  UNL1        0.0001
     20 C         142.8219  140.5541  169.9600 C.ar    1  UNL1        0.0039
     21 C         143.1454  141.9092  169.4042 C.ar    1  UNL1        0.0716
     22 C         143.1806  142.1220  167.9197 C.ar    1  UNL1        0.0084
     23 C         143.4337  143.0514  170.3327 C.3     1  UNL1        0.4186
     24 F         143.7220  144.1937  171.2612 F       1  UNL1       -0.1659
     25 F         141.9715  143.3828  170.3789 F       1  UNL1       -0.1659
     26 F         144.8959  142.7200  170.2864 F       1  UNL1       -0.1659
     27 N         139.3569  144.5315  156.3897 N.3     1  UNL1       -0.2741
     28 C         138.1665  143.6853  156.0477 C.3     1  UNL1        0.0896
     29 C         139.7090  145.7118  155.5336 C.3     1  UNL1        0.0576
     30 C         140.9111  145.6567  154.6380 C.3     1  UNL1        0.0173
     31 C         138.8591  146.9472  155.5730 C.3     1  UNL1        0.0173
     32 C         141.8333  141.0201  159.3116 C.3     1  UNL1        0.1576
     33 S         141.2364  140.2745  160.4682 S.O2    1  UNL1        0.0087
     34 O         142.6075  139.8455  160.8993 O.2     1  UNL1       -0.1686
     35 O         139.8653  140.7036  160.0370 O.2     1  UNL1       -0.1686
     36 C         138.8484  137.2923  165.0946 C.3     1  UNL1        0.0310
     37 C         139.4453  138.0379  163.9380 C.ar    1  UNL1       -0.0218
     38 C         140.5960  137.4470  163.1784 C.ar    1  UNL1       -0.0029
     39 C         141.1929  138.1926  162.0218 C.ar    1  UNL1        0.0180
     40 C         140.6393  139.5290  161.6248 C.ar    1  UNL1        0.1056
     41 C         139.4888  140.1198  162.3844 C.ar    1  UNL1        0.0180
     42 C         138.8917  139.3742  163.5411 C.ar    1  UNL1       -0.0029
@<TRIPOS>BOND
     1    36    37    1
     2    37    38   ar
     3    38    39   ar
     4    39    40   ar
     5    40    33    1
     6    33    34    2
     7    33    35    2
     8    33    32    1
     9     1    32    1
    10     1     2    1
    11     2     3    1
    12     3    27    1
    13    27    28    1
    14    27    29    1
    15    29    30    1
    16    29    31    1
    17     3     4    1
    18     4     5    1
    19     5     6    1
    20     6     7    1
    21     7     8    1
    22     8     9    1
    23     9    10    1
    24    10    13    1
    25    13    14   am
    26    14    15    2
    27    14    17    1
    28    17    18   ar
    29    18    19   ar
    30    19    20   ar
    31    20    21   ar
    32    21    23    1
    33    23    24    1
    34    23    25    1
    35    23    26    1
    36    21    22   ar
    37    10    11    1
    38    11    12    2
    39    40    41   ar
    40    41    42   ar
    41    42    37   ar
    42     6     1    1
    43    11     7   am
    44    22    17   ar
    45    13    16    1
@<TRIPOS>MOLECULE
*****
 42 45 0 0 0
SMALL
GASTEIGER

@<TRIPOS>ATOM
      1 C         139.2428  143.2632  159.5286 C.3     1  UNL1        0.0436
      2 C         139.6186  143.3692  158.0803 C.3     1  UNL1        0.0194
      3 C         140.5285  144.4695  157.6202 C.3     1  UNL1        0.0577
      4 C         141.0625  145.4637  158.6083 C.3     1  UNL1        0.0177
      5 C         140.6866  145.3577  160.0566 C.3     1  UNL1        0.0212
      6 C         139.7768  144.2575  160.5167 C.3     1  UNL1        0.0771
      7 N         139.4009  144.1515  161.9650 N.am    1  UNL1       -0.2797
      8 C         138.0674  144.4988  162.5575 C.3     1  UNL1        0.0956
      9 C         138.1349  144.2415  164.0338 C.3     1  UNL1        0.0505
     10 C         139.5102  143.7352  164.3536 C.3     1  UNL1        0.1507
     11 C         140.2926  143.6795  163.0750 C.2     1  UNL1        0.2435
     12 O         141.7167  143.2306  162.9317 O.2     1  UNL1       -0.2731
     13 N         140.0145  143.3517  165.7132 N.am    1  UNL1       -0.2948
     14 C         139.9087  141.9299  166.1789 C.2     1  UNL1        0.2461
     15 O         139.2986  140.8913  165.2850 O.2     1  UNL1       -0.2701
     16 H         140.4149  144.0334  166.3000 H       1  UNL1        0.1501
     17 C         140.4130  141.5465  167.5386 C.ar    1  UNL1        0.0533
     18 C         139.9296  140.2844  168.1894 C.ar    1  UNL1        0.0045
     19 C         140.4340  139.9010  169.5491 C.ar    1  UNL1        0.0001
     20 C         141.4216  140.7797  170.2579 C.ar    1  UNL1        0.0039
     21 C         141.9050  142.0418  169.6071 C.ar    1  UNL1        0.0716
     22 C         141.4006  142.4251  168.2474 C.ar    1  UNL1        0.0084
     23 C         142.8926  142.9204  170.3159 C.3     1  UNL1        0.4186
     24 F         143.8803  143.7991  171.0248 F       1  UNL1       -0.1659
     25 F         141.8676  144.0130  170.3898 F       1  UNL1       -0.1659
     26 F         143.9177  141.8278  170.2421 F       1  UNL1       -0.1659
     27 N         140.9044  144.5755  156.1719 N.3     1  UNL1       -0.2741
     28 C         139.8942  145.0452  155.1673 C.3     1  UNL1        0.0896
     29 C         142.2903  144.2118  155.7281 C.3     1  UNL1        0.0576
     30 C         143.0544  143.1445  156.4540 C.3     1  UNL1        0.0173
     31 C         142.9122  144.9155  154.5585 C.3     1  UNL1        0.0173
     32 C         138.3330  142.1630  159.9887 C.3     1  UNL1        0.1576
     33 S         138.8533  141.0916  160.9004 S.O2    1  UNL1        0.0087
     34 O         140.0850  140.9688  160.0532 O.2     1  UNL1       -0.1686
     35 O         137.6216  141.2144  161.7476 O.2     1  UNL1       -0.1686
     36 C         140.9344  136.8057  164.5474 C.3     1  UNL1        0.0310
     37 C         140.4142  137.8771  163.6357 C.ar    1  UNL1       -0.0218
     38 C         138.9601  137.9088  163.2687 C.ar    1  UNL1       -0.0029
     39 C         138.4398  138.9803  162.3569 C.ar    1  UNL1        0.0180
     40 C         139.3736  140.0201  161.8122 C.ar    1  UNL1        0.1056
     41 C         140.8277  139.9885  162.1791 C.ar    1  UNL1        0.0180
     42 C         141.3480  138.9170  163.0909 C.ar    1  UNL1       -0.0029
@<TRIPOS>BOND
     1    36    37    1
     2    37    38   ar
     3    38    39   ar
     4    39    40   ar
     5    40    33    1
     6    33    34    2
     7    33    35    2
     8    33    32    1
     9     1    32    1
    10     1     2    1
    11     2     3    1
    12     3    27    1
    13    27    28    1
    14    27    29    1
    15    29    30    1
    16    29    31    1
    17     3     4    1
    18     4     5    1
    19     5     6    1
    20     6     7    1
    21     7     8    1
    22     8     9    1
    23     9    10    1
    24    10    13    1
    25    13    14   am
    26    14    15    2
    27    14    17    1
    28    17    18   ar
    29    18    19   ar
    30    19    20   ar
    31    20    21   ar
    32    21    23    1
    33    23    24    1
    34    23    25    1
    35    23    26    1
    36    21    22   ar
    37    10    11    1
    38    11    12    2
    39    40    41   ar
    40    41    42   ar
    41    42    37   ar
    42     6     1    1
    43    11     7   am
    44    22    17   ar
    45    13    16    1
@<TRIPOS>MOLECULE
*****
 42 45 0 0 0
SMALL
GASTEIGER

@<TRIPOS>ATOM
      1 C         139.1265  140.7939  166.0579 C.3     1  UNL1        0.0436
      2 C         139.5775  140.1740  167.3472 C.3     1  UNL1        0.0194
      3 C         140.4124  140.9668  168.3088 C.3     1  UNL1        0.0577
      4 C         140.7962  142.3793  167.9811 C.3     1  UNL1        0.0177
      5 C         140.3452  142.9991  166.6917 C.3     1  UNL1        0.0212
      6 C         139.5103  142.2065  165.7302 C.3     1  UNL1        0.0771
      7 N         139.0593  142.8263  164.4408 N.am    1  UNL1       -0.2797
      8 C         137.7558  143.5318  164.2102 C.3     1  UNL1        0.0956
      9 C         137.7234  143.9910  162.7826 C.3     1  UNL1        0.0505
     10 C         139.0069  143.5693  162.1309 C.3     1  UNL1        0.1507
     11 C         139.8325  142.8495  163.1557 C.2     1  UNL1        0.2435
     12 O         141.1926  142.2569  162.9343 O.2     1  UNL1       -0.2731
     13 N         139.3965  143.8228  160.7047 N.am    1  UNL1       -0.2948
     14 C         140.5670  144.7074  160.3929 C.2     1  UNL1        0.2461
     15 O         141.3480  145.3385  161.5072 O.2     1  UNL1       -0.2701
     16 H         138.8839  143.4087  159.9733 H       1  UNL1        0.1501
     17 C         140.9565  144.9610  158.9667 C.ar    1  UNL1        0.0533
     18 C         142.1634  144.2844  158.3872 C.ar    1  UNL1        0.0045
     19 C         142.5529  144.5380  156.9610 C.ar    1  UNL1        0.0001
     20 C         141.7356  145.4682  156.1143 C.ar    1  UNL1        0.0039
     21 C         140.5287  146.1447  156.6938 C.ar    1  UNL1        0.0716
     22 C         140.1392  145.8911  158.1201 C.ar    1  UNL1        0.0084
     23 C         139.7114  147.0749  155.8472 C.3     1  UNL1        0.4186
     24 F         138.8941  148.0050  155.0005 F       1  UNL1       -0.1659
     25 F         140.4115  146.5725  154.6194 F       1  UNL1       -0.1659
     26 F         139.0113  147.5773  157.0750 F       1  UNL1       -0.1659
     27 N         140.8635  140.3470  169.5981 N.3     1  UNL1       -0.2741
     28 C         139.8665  140.0600  170.6815 C.3     1  UNL1        0.0896
     29 C         142.3115  140.0141  169.8041 C.3     1  UNL1        0.0576
     30 C         142.7461  138.5813  169.8948 C.3     1  UNL1        0.0173
     31 C         143.3249  141.1140  169.9193 C.3     1  UNL1        0.0173
     32 C         138.2917  140.0012  165.0963 C.3     1  UNL1        0.1576
     33 S         138.8297  139.6638  163.7375 S.O2    1  UNL1        0.0087
     34 O         137.5734  140.1901  163.1093 O.2     1  UNL1       -0.1686
     35 O         140.0860  139.1375  164.3656 O.2     1  UNL1       -0.1686
     36 C         140.9821  138.3141  158.3018 C.3     1  UNL1        0.0310
     37 C         140.4441  138.6515  159.6607 C.ar    1  UNL1       -0.0218
     38 C         139.1047  139.3138  159.7938 C.ar    1  UNL1       -0.0029
     39 C         138.5667  139.6512  161.1527 C.ar    1  UNL1        0.0180
     40 C         139.3679  139.3263  162.3785 C.ar    1  UNL1        0.1056
     41 C         140.7071  138.6641  162.2454 C.ar    1  UNL1        0.0180
     42 C         141.2452  138.3266  160.8865 C.ar    1  UNL1       -0.0029
@<TRIPOS>BOND
     1    36    37    1
     2    37    38   ar
     3    38    39   ar
     4    39    40   ar
     5    40    33    1
     6    33    34    2
     7    33    35    2
     8    33    32    1
     9     1    32    1
    10     1     2    1
    11     2     3    1
    12     3    27    1
    13    27    28    1
    14    27    29    1
    15    29    30    1
    16    29    31    1
    17     3     4    1
    18     4     5    1
    19     5     6    1
    20     6     7    1
    21     7     8    1
    22     8     9    1
    23     9    10    1
    24    10    13    1
    25    13    14   am
    26    14    15    2
    27    14    17    1
    28    17    18   ar
    29    18    19   ar
    30    19    20   ar
    31    20    21   ar
    32    21    23    1
    33    23    24    1
    34    23    25    1
    35    23    26    1
    36    21    22   ar
    37    10    11    1
    38    11    12    2
    39    40    41   ar
    40    41    42   ar
    41    42    37   ar
    42     6     1    1
    43    11     7   am
    44    22    17   ar
    45    13    16    1
@<TRIPOS>MOLECULE
*****
 42 45 0 0 0
SMALL
GASTEIGER

@<TRIPOS>ATOM
      1 C         140.7192  139.4382  159.4608 C.3     1  UNL1        0.0436
      2 C         140.3719  138.5920  158.2720 C.3     1  UNL1        0.0194
      3 C         141.4423  137.8111  157.5687 C.3     1  UNL1        0.0577
      4 C         142.8600  137.8765  158.0543 C.3     1  UNL1        0.0177
      5 C         143.2073  138.7227  159.2431 C.3     1  UNL1        0.0212
      6 C         142.1370  139.5035  159.9464 C.3     1  UNL1        0.0771
      7 N         142.4844  140.3497  161.1352 N.am    1  UNL1       -0.2797
      8 C         142.8262  141.8100  161.1083 C.3     1  UNL1        0.0956
      9 C         143.1040  142.2471  162.5161 C.3     1  UNL1        0.0505
     10 C         142.9338  141.0569  163.4130 C.3     1  UNL1        0.1507
     11 C         142.5509  139.8843  162.5596 C.2     1  UNL1        0.2435
     12 O         142.2817  138.4908  163.0452 O.2     1  UNL1       -0.2731
     13 N         143.1148  141.0419  164.9020 N.am    1  UNL1       -0.2948
     14 C         142.1012  141.7041  165.7874 C.2     1  UNL1        0.2461
     15 O         140.9066  142.3813  165.1839 O.2     1  UNL1       -0.2701
     16 H         143.8989  140.5973  165.2981 H       1  UNL1        0.1501
     17 C         142.2822  141.6891  167.2764 C.ar    1  UNL1        0.0533
     18 C         143.4319  142.4238  167.8996 C.ar    1  UNL1        0.0045
     19 C         143.6128  142.4088  169.3887 C.ar    1  UNL1        0.0001
     20 C         142.6442  141.6590  170.2544 C.ar    1  UNL1        0.0039
     21 C         141.4945  140.9242  169.6311 C.ar    1  UNL1        0.0716
     22 C         141.3136  140.9393  168.1421 C.ar    1  UNL1        0.0084
     23 C         140.5259  140.1744  170.4968 C.3     1  UNL1        0.4186
     24 F         139.5572  139.4246  171.3625 F       1  UNL1       -0.1659
     25 F         141.1796  140.7435  171.7211 F       1  UNL1       -0.1659
     26 F         139.8722  139.6054  169.2725 F       1  UNL1       -0.1659
     27 N         141.0950  136.9649  156.3799 N.3     1  UNL1       -0.2741
     28 C         139.7174  137.0300  155.7897 C.3     1  UNL1        0.0896
     29 C         142.1251  136.0536  155.7813 C.3     1  UNL1        0.0576
     30 C         142.0597  134.5770  156.0374 C.3     1  UNL1        0.0173
     31 C         143.2205  136.6188  154.9266 C.3     1  UNL1        0.0173
     32 C         139.6489  140.2191  160.1640 C.3     1  UNL1        0.1576
     33 S         139.2676  139.8692  161.5719 S.O2    1  UNL1        0.0087
     34 O         139.2232  138.4170  161.1989 O.2     1  UNL1       -0.1686
     35 O         139.3120  141.3213  161.9448 O.2     1  UNL1       -0.1686
     36 C         137.7425  138.4698  167.2036 C.3     1  UNL1        0.0310
     37 C         138.1238  138.8196  165.7957 C.ar    1  UNL1       -0.0218
     38 C         137.9629  140.2272  165.3028 C.ar    1  UNL1       -0.0029
     39 C         138.3441  140.5770  163.8949 C.ar    1  UNL1        0.0180
     40 C         138.8863  139.5193  162.9798 C.ar    1  UNL1        0.1056
     41 C         139.0473  138.1118  163.4727 C.ar    1  UNL1        0.0180
     42 C         138.6660  137.7619  164.8807 C.ar    1  UNL1       -0.0029
@<TRIPOS>BOND
     1    36    37    1
     2    37    38   ar
     3    38    39   ar
     4    39    40   ar
     5    40    33    1
     6    33    34    2
     7    33    35    2
     8    33    32    1
     9     1    32    1
    10     1     2    1
    11     2     3    1
    12     3    27    1
    13    27    28    1
    14    27    29    1
    15    29    30    1
    16    29    31    1
    17     3     4    1
    18     4     5    1
    19     5     6    1
    20     6     7    1
    21     7     8    1
    22     8     9    1
    23     9    10    1
    24    10    13    1
    25    13    14   am
    26    14    15    2
    27    14    17    1
    28    17    18   ar
    29    18    19   ar
    30    19    20   ar
    31    20    21   ar
    32    21    23    1
    33    23    24    1
    34    23    25    1
    35    23    26    1
    36    21    22   ar
    37    10    11    1
    38    11    12    2
    39    40    41   ar
    40    41    42   ar
    41    42    37   ar
    42     6     1    1
    43    11     7   am
    44    22    17   ar
    45    13    16    1
@<TRIPOS>MOLECULE
*****
 42 45 0 0 0
SMALL
GASTEIGER

@<TRIPOS>ATOM
      1 C         141.2685  140.6006  160.0382 C.3     1  UNL1        0.0436
      2 C         141.5746  141.6902  161.0226 C.3     1  UNL1        0.0194
      3 C         142.7091  142.6370  160.7647 C.3     1  UNL1        0.0577
      4 C         143.5374  142.4943  159.5223 C.3     1  UNL1        0.0177
      5 C         143.2313  141.4047  158.5379 C.3     1  UNL1        0.0212
      6 C         142.0969  140.4579  158.7958 C.3     1  UNL1        0.0771
      7 N         141.7908  139.3684  157.8113 N.am    1  UNL1       -0.2797
      8 C         141.1394  139.5476  156.4721 C.3     1  UNL1        0.0956
      9 C         141.0283  138.1982  155.8263 C.3     1  UNL1        0.0505
     10 C         141.6111  137.1851  156.7665 C.3     1  UNL1        0.1507
     11 C         142.0823  137.9082  157.9933 C.2     1  UNL1        0.2435
     12 O         142.7311  137.2813  159.1916 O.2     1  UNL1       -0.2731
     13 N         141.7060  135.7081  156.5227 N.am    1  UNL1       -0.2948
     14 C         143.0321  135.0843  156.2034 C.2     1  UNL1        0.2461
     15 O         144.2635  135.9375  156.1280 O.2     1  UNL1       -0.2701
     16 H         140.8978  135.1481  156.5722 H       1  UNL1        0.1501
     17 C         143.1270  133.6073  155.9596 C.ar    1  UNL1        0.0533
     18 C         144.4407  132.9026  156.1259 C.ar    1  UNL1        0.0045
     19 C         144.5356  131.4255  155.8820 C.ar    1  UNL1        0.0001
     20 C         143.3168  130.6532  155.4720 C.ar    1  UNL1        0.0039
     21 C         142.0031  131.3580  155.3058 C.ar    1  UNL1        0.0716
     22 C         141.9083  132.8351  155.5496 C.ar    1  UNL1        0.0084
     23 C         140.7843  130.5857  154.8957 C.3     1  UNL1        0.4186
     24 F         139.5655  129.8135  154.4857 F       1  UNL1       -0.1659
     25 F         141.2986  129.3837  155.6310 F       1  UNL1       -0.1659
     26 F         140.2701  131.7878  154.1604 F       1  UNL1       -0.1659
     27 N         143.0152  143.7266  161.7491 N.3     1  UNL1       -0.2741
     28 C         144.3808  143.8212  162.3625 C.3     1  UNL1        0.0896
     29 C         141.9558  144.7215  162.1202 C.3     1  UNL1        0.0576
     30 C         141.8783  145.2465  163.5232 C.3     1  UNL1        0.0173
     31 C         140.9738  145.1915  161.0882 C.3     1  UNL1        0.0173
     32 C         140.1341  139.6538  160.2961 C.3     1  UNL1        0.1576
     33 S         139.6507  139.4267  161.6977 S.O2    1  UNL1        0.0087
     34 O         138.5079  140.3678  161.4561 O.2     1  UNL1       -0.1686
     35 O         140.7934  138.4856  161.9394 O.2     1  UNL1       -0.1686
     36 C         137.7172  138.5180  167.3046 C.3     1  UNL1        0.0310
     37 C         138.2005  138.7452  165.9029 C.ar    1  UNL1       -0.0218
     38 C         138.7851  137.6086  165.1176 C.ar    1  UNL1       -0.0029
     39 C         139.2684  137.8358  163.7160 C.ar    1  UNL1        0.0180
     40 C         139.1673  139.1995  163.0995 C.ar    1  UNL1        0.1056
     41 C         138.5827  140.3361  163.8847 C.ar    1  UNL1        0.0180
     42 C         138.0993  140.1089  165.2864 C.ar    1  UNL1       -0.0029
@<TRIPOS>BOND
     1    36    37    1
     2    37    38   ar
     3    38    39   ar
     4    39    40   ar
     5    40    33    1
     6    33    34    2
     7    33    35    2
     8    33    32    1
     9     1    32    1
    10     1     2    1
    11     2     3    1
    12     3    27    1
    13    27    28    1
    14    27    29    1
    15    29    30    1
    16    29    31    1
    17     3     4    1
    18     4     5    1
    19     5     6    1
    20     6     7    1
    21     7     8    1
    22     8     9    1
    23     9    10    1
    24    10    13    1
    25    13    14   am
    26    14    15    2
    27    14    17    1
    28    17    18   ar
    29    18    19   ar
    30    19    20   ar
    31    20    21   ar
    32    21    23    1
    33    23    24    1
    34    23    25    1
    35    23    26    1
    36    21    22   ar
    37    10    11    1
    38    11    12    2
    39    40    41   ar
    40    41    42   ar
    41    42    37   ar
    42     6     1    1
    43    11     7   am
    44    22    17   ar
    45    13    16    1
