@<TRIPOS>MOLECULE
*****
 37 41 0 0 0
SMALL
GASTEIGER

@<TRIPOS>ATOM
      1 N         140.5441  143.6021  161.8712 N.3     1  UNL1       -0.2750
      2 C         140.0782  142.5496  160.9094 C.3     1  UNL1        0.0737
      3 C         140.2906  142.7331  159.4359 C.3     1  UNL1        0.0374
      4 C         140.9689  143.9693  158.9243 C.3     1  UNL1        0.0800
      5 C         141.4348  145.0218  159.8860 C.3     1  UNL1        0.0374
      6 C         141.2224  144.8383  161.3595 C.3     1  UNL1        0.0737
      7 C         141.5578  140.6672  166.6878 C.2     1  UNL1        0.2542
      8 O         142.4701  139.5094  166.4099 O.2     1  UNL1       -0.2697
      9 N         141.1491  141.5843  165.5735 N.am    1  UNL1       -0.2758
     10 C         141.6527  141.3436  164.1811 C.3     1  UNL1        0.0951
     11 C         141.2440  142.2608  163.0668 C.3     1  UNL1        0.0362
     12 C         140.3316  143.4185  163.3447 C.3     1  UNL1        0.0487
     13 C         139.4931  144.6400  163.1109 C.3     1  UNL1        0.0161
     14 C         139.8280  143.6592  164.7369 C.3     1  UNL1        0.0362
     15 C         140.2367  142.7420  165.8514 C.3     1  UNL1        0.0951
     16 C         138.9236  139.5187  167.5496 C.3     1  UNL1        0.0316
     17 C         139.7371  140.3336  168.5110 C.ar    1  UNL1       -0.0058
     18 C         139.2336  140.5742  169.9033 C.ar    1  UNL1        0.0730
     19 C         140.0470  141.3891  170.8647 C.ar    1  UNL1        0.3010
     20 N         141.3640  141.9633  170.4338 N.ar    1  UNL1       -0.1606
     21 O         142.1775  142.7781  171.3952 O.co2   1  UNL1       -0.6190
     22 C         141.8676  141.7226  169.0416 C.ar    1  UNL1        0.2180
     23 C         143.1847  142.2968  168.6106 C.3     1  UNL1        0.1093
     24 C         141.0541  140.9078  168.0802 C.ar    1  UNL1        0.1099
     25 N         141.1813  144.1529  157.4508 N.pl3   1  UNL1       -0.2872
     26 C         140.1615  144.8869  156.6316 C.ar    1  UNL1        0.0516
     27 C         140.3009  146.3636  156.4080 C.ar    1  UNL1        0.0148
     28 C         139.2811  147.0978  155.5889 C.ar    1  UNL1        0.0013
     29 C         138.1218  146.3552  154.9933 C.ar    1  UNL1        0.0001
     30 C         137.9824  144.8785  155.2169 C.ar    1  UNL1        0.0013
     31 C         139.0022  144.1444  156.0360 C.ar    1  UNL1        0.0148
     32 C         142.4137  143.6023  156.7964 C.ar    1  UNL1        0.0710
     33 C         142.5750  143.6895  155.3076 C.ar    1  UNL1        0.0180
     34 C         143.8073  143.1390  154.6532 C.ar    1  UNL1        0.0220
     35 C         144.8784  142.5013  155.4875 C.ar    1  UNL1        0.0990
     36 N         144.7171  142.4141  156.9763 N.ar    1  UNL1       -0.2410
     37 C         143.4848  142.9646  157.6307 C.ar    1  UNL1        0.1136
@<TRIPOS>UNITY_ATOM_ATTR
20 1
charge 1
21 1
charge -1
@<TRIPOS>BOND
     1    16    17    1
     2    17    18   ar
     3    18    19   ar
     4    19    20   ar
     5    20    21    1
     6    20    22   ar
     7    22    23    1
     8    22    24   ar
     9    24     7    1
    10     7     8    2
    11     7     9   am
    12     9    10    1
    13    10    11    1
    14    11    12    1
    15    12    13    1
    16    12     1    1
    17     1     2    1
    18     2     3    1
    19     3     4    1
    20     4    25    1
    21    25    26    1
    22    26    27   ar
    23    27    28   ar
    24    28    29   ar
    25    29    30   ar
    26    30    31   ar
    27    25    32    1
    28    32    33   ar
    29    33    34   ar
    30    34    35   ar
    31    35    36   ar
    32    36    37   ar
    33     4     5    1
    34     5     6    1
    35    12    14    1
    36    14    15    1
    37    24    17   ar
    38    15     9    1
    39     6     1    1
    40    31    26   ar
    41    37    32   ar
@<TRIPOS>MOLECULE
*****
 37 41 0 0 0
SMALL
GASTEIGER

@<TRIPOS>ATOM
      1 N         140.5789  143.6097  161.9119 N.3     1  UNL1       -0.2750
      2 C         141.2370  144.8511  161.3869 C.3     1  UNL1        0.0737
      3 C         141.4307  145.0301  159.9103 C.3     1  UNL1        0.0374
      4 C         140.9663  143.9676  158.9587 C.3     1  UNL1        0.0800
      5 C         140.3082  142.7262  159.4837 C.3     1  UNL1        0.0374
      6 C         140.1145  142.5471  160.9603 C.3     1  UNL1        0.0737
      7 C         141.6580  140.6926  166.7253 C.2     1  UNL1        0.2542
      8 O         142.5690  139.5356  166.4398 O.2     1  UNL1       -0.2697
      9 N         141.2337  141.6053  165.6131 N.am    1  UNL1       -0.2758
     10 C         141.7204  141.3609  164.2153 C.3     1  UNL1        0.0951
     11 C         141.2962  142.2736  163.1032 C.3     1  UNL1        0.0362
     12 C         140.3852  143.4306  163.3886 C.3     1  UNL1        0.0487
     13 C         139.5416  144.6498  163.1612 C.3     1  UNL1        0.0161
     14 C         139.8985  143.6750  164.7862 C.3     1  UNL1        0.0362
     15 C         140.3228  142.7623  165.8985 C.3     1  UNL1        0.0951
     16 C         143.2959  142.3487  168.6160 C.3     1  UNL1        0.0316
     17 C         141.9903  141.7650  169.0683 C.ar    1  UNL1       -0.0058
     18 C         141.5036  142.0093  170.4659 C.ar    1  UNL1        0.0730
     19 C         140.1979  141.4256  170.9182 C.ar    1  UNL1        0.3010
     20 N         139.3789  140.5976  169.9729 N.ar    1  UNL1       -0.1606
     21 O         138.0733  140.0139  170.4252 O.co2   1  UNL1       -0.6190
     22 C         139.8657  140.3533  168.5752 C.ar    1  UNL1        0.2180
     23 C         139.0467  139.5253  167.6298 C.3     1  UNL1        0.1093
     24 C         141.1713  140.9370  168.1230 C.ar    1  UNL1        0.1099
     25 N         141.1600  144.1467  157.4821 N.pl3   1  UNL1       -0.2872
     26 C         140.1203  144.8608  156.6703 C.ar    1  UNL1        0.0516
     27 C         138.9978  144.0886  156.0428 C.ar    1  UNL1        0.0148
     28 C         137.9581  144.8026  155.2310 C.ar    1  UNL1        0.0013
     29 C         138.0407  146.2889  155.0468 C.ar    1  UNL1        0.0001
     30 C         139.1632  147.0612  155.6743 C.ar    1  UNL1        0.0013
     31 C         140.2029  146.3472  156.4860 C.ar    1  UNL1        0.0148
     32 C         142.3935  143.6115  156.8172 C.ar    1  UNL1        0.0710
     33 C         142.5684  143.7550  155.3343 C.ar    1  UNL1        0.0180
     34 C         143.8020  143.2198  154.6694 C.ar    1  UNL1        0.0220
     35 C         144.8605  142.5412  155.4873 C.ar    1  UNL1        0.0990
     36 N         144.6855  142.3977  156.9701 N.ar    1  UNL1       -0.2410
     37 C         143.4520  142.9329  157.6350 C.ar    1  UNL1        0.1136
@<TRIPOS>UNITY_ATOM_ATTR
20 1
charge 1
21 1
charge -1
@<TRIPOS>BOND
     1    16    17    1
     2    17    18   ar
     3    18    19   ar
     4    19    20   ar
     5    20    21    1
     6    20    22   ar
     7    22    23    1
     8    22    24   ar
     9    24     7    1
    10     7     8    2
    11     7     9   am
    12     9    10    1
    13    10    11    1
    14    11    12    1
    15    12    13    1
    16    12     1    1
    17     1     2    1
    18     2     3    1
    19     3     4    1
    20     4    25    1
    21    25    26    1
    22    26    27   ar
    23    27    28   ar
    24    28    29   ar
    25    29    30   ar
    26    30    31   ar
    27    25    32    1
    28    32    33   ar
    29    33    34   ar
    30    34    35   ar
    31    35    36   ar
    32    36    37   ar
    33     4     5    1
    34     5     6    1
    35    12    14    1
    36    14    15    1
    37    24    17   ar
    38    15     9    1
    39     6     1    1
    40    31    26   ar
    41    37    32   ar
@<TRIPOS>MOLECULE
*****
 37 41 0 0 0
SMALL
GASTEIGER

@<TRIPOS>ATOM
      1 N         140.5678  143.6085  161.8698 N.3     1  UNL1       -0.2750
      2 C         140.1239  142.5415  160.9137 C.3     1  UNL1        0.0737
      3 C         140.3328  142.7215  159.4392 C.3     1  UNL1        0.0374
      4 C         140.9854  143.9688  158.9210 C.3     1  UNL1        0.0800
      5 C         141.4293  145.0358  159.8772 C.3     1  UNL1        0.0374
      6 C         141.2204  144.8557  161.3516 C.3     1  UNL1        0.0737
      7 C         141.5344  140.6431  166.6774 C.2     1  UNL1        0.2542
      8 O         142.4160  139.4632  166.3932 O.2     1  UNL1       -0.2697
      9 N         141.1426  141.5715  165.5664 N.am    1  UNL1       -0.2758
     10 C         141.6324  141.3202  164.1710 C.3     1  UNL1        0.0951
     11 C         141.2406  142.2486  163.0600 C.3     1  UNL1        0.0362
     12 C         140.3590  143.4284  163.3443 C.3     1  UNL1        0.0487
     13 C         139.5499  144.6707  163.1165 C.3     1  UNL1        0.0161
     14 C         139.8692  143.6798  164.7395 C.3     1  UNL1        0.0362
     15 C         140.2610  142.7513  165.8507 C.3     1  UNL1        0.0951
     16 C         138.9061  139.5066  167.5721 C.3     1  UNL1        0.0316
     17 C         139.7305  140.3262  168.5201 C.ar    1  UNL1       -0.0058
     18 C         139.2407  140.5776  169.9154 C.ar    1  UNL1        0.0730
     19 C         140.0651  141.3971  170.8634 C.ar    1  UNL1        0.3010
     20 N         141.3793  141.9653  170.4161 N.ar    1  UNL1       -0.1606
     21 O         142.2037  142.7849  171.3641 O.co2   1  UNL1       -0.6190
     22 C         141.8690  141.7140  169.0208 C.ar    1  UNL1        0.2180
     23 C         143.1832  142.2822  168.5734 C.3     1  UNL1        0.1093
     24 C         141.0446  140.8944  168.0728 C.ar    1  UNL1        0.1099
     25 N         141.1943  144.1488  157.4466 N.pl3   1  UNL1       -0.2872
     26 C         142.4164  143.5817  156.7873 C.ar    1  UNL1        0.0516
     27 C         142.5642  143.6500  155.2961 C.ar    1  UNL1        0.0148
     28 C         143.7863  143.0829  154.6368 C.ar    1  UNL1        0.0013
     29 C         144.8607  142.4475  155.4685 C.ar    1  UNL1        0.0001
     30 C         144.7129  142.3791  156.9597 C.ar    1  UNL1        0.0013
     31 C         143.4908  142.9462  157.6191 C.ar    1  UNL1        0.0148
     32 C         140.1808  144.8961  156.6313 C.ar    1  UNL1        0.0710
     33 C         140.3635  146.3614  156.3675 C.ar    1  UNL1        0.0180
     34 C         139.3500  147.1087  155.5523 C.ar    1  UNL1        0.0220
     35 C         138.1540  146.3907  155.0009 C.ar    1  UNL1        0.0990
     36 N         137.9714  144.9255  155.2647 N.ar    1  UNL1       -0.2410
     37 C         138.9848  144.1782  156.0799 C.ar    1  UNL1        0.1136
@<TRIPOS>UNITY_ATOM_ATTR
20 1
charge 1
21 1
charge -1
@<TRIPOS>BOND
     1    16    17    1
     2    17    18   ar
     3    18    19   ar
     4    19    20   ar
     5    20    21    1
     6    20    22   ar
     7    22    23    1
     8    22    24   ar
     9    24     7    1
    10     7     8    2
    11     7     9   am
    12     9    10    1
    13    10    11    1
    14    11    12    1
    15    12    13    1
    16    12     1    1
    17     1     2    1
    18     2     3    1
    19     3     4    1
    20     4    25    1
    21    25    26    1
    22    26    27   ar
    23    27    28   ar
    24    28    29   ar
    25    29    30   ar
    26    30    31   ar
    27    25    32    1
    28    32    33   ar
    29    33    34   ar
    30    34    35   ar
    31    35    36   ar
    32    36    37   ar
    33     4     5    1
    34     5     6    1
    35    12    14    1
    36    14    15    1
    37    24    17   ar
    38    15     9    1
    39     6     1    1
    40    31    26   ar
    41    37    32   ar
@<TRIPOS>MOLECULE
*****
 37 41 0 0 0
SMALL
GASTEIGER

@<TRIPOS>ATOM
      1 N         143.2401  141.4961  162.1619 N.3     1  UNL1       -0.2750
      2 C         141.8870  141.9864  162.5842 C.3     1  UNL1        0.0737
      3 C         141.3097  141.5545  163.8996 C.3     1  UNL1        0.0374
      4 C         142.0857  140.6323  164.7926 C.3     1  UNL1        0.0800
      5 C         143.4388  140.1420  164.3703 C.3     1  UNL1        0.0374
      6 C         144.0161  140.5739  163.0549 C.3     1  UNL1        0.0737
      7 C         143.0735  141.4548  156.4337 C.2     1  UNL1        0.2542
      8 O         141.9159  140.6312  155.9523 O.2     1  UNL1       -0.2697
      9 N         143.3215  141.6125  157.9046 N.am    1  UNL1       -0.2758
     10 C         142.4118  140.9467  158.8942 C.3     1  UNL1        0.0951
     11 C         142.6598  141.1045  160.3651 C.3     1  UNL1        0.0362
     12 C         143.8174  141.9280  160.8465 C.3     1  UNL1        0.0487
     13 C         144.7745  142.6015  161.7847 C.3     1  UNL1        0.0161
     14 C         144.7271  142.5938  159.8570 C.3     1  UNL1        0.0362
     15 C         144.4791  142.4360  158.3860 C.3     1  UNL1        0.0951
     16 C         142.3904  144.1714  155.3597 C.3     1  UNL1        0.0316
     17 C         143.6417  143.4788  154.9071 C.ar    1  UNL1       -0.0058
     18 C         144.5513  144.1446  153.9175 C.ar    1  UNL1        0.0730
     19 C         145.8026  143.4520  153.4650 C.ar    1  UNL1        0.3010
     20 N         146.1441  142.0938  154.0020 N.ar    1  UNL1       -0.1606
     21 O         147.3954  141.4012  153.5494 O.co2   1  UNL1       -0.6190
     22 C         145.2345  141.4280  154.9915 C.ar    1  UNL1        0.2180
     23 C         145.5760  140.0697  155.5286 C.3     1  UNL1        0.1093
     24 C         143.9832  142.1206  155.4441 C.ar    1  UNL1        0.1099
     25 N         141.5084  140.2004  166.1080 N.pl3   1  UNL1       -0.2872
     26 C         140.2713  139.3528  166.1422 C.ar    1  UNL1        0.0516
     27 C         140.1231  138.2037  165.1895 C.ar    1  UNL1        0.0148
     28 C         138.8861  137.3560  165.2236 C.ar    1  UNL1        0.0013
     29 C         137.7973  137.6574  166.2103 C.ar    1  UNL1        0.0001
     30 C         137.9455  138.8065  167.1630 C.ar    1  UNL1        0.0013
     31 C         139.1825  139.6542  167.1289 C.ar    1  UNL1        0.0148
     32 C         142.1682  140.6162  167.3893 C.ar    1  UNL1        0.0710
     33 C         142.5147  142.0571  167.6213 C.ar    1  UNL1        0.0180
     34 C         143.1746  142.4729  168.9027 C.ar    1  UNL1        0.0220
     35 C         143.4879  141.4478  169.9520 C.ar    1  UNL1        0.0990
     36 N         143.1414  140.0069  169.7200 N.ar    1  UNL1       -0.2410
     37 C         142.4816  139.5912  168.4386 C.ar    1  UNL1        0.1136
@<TRIPOS>UNITY_ATOM_ATTR
20 1
charge 1
21 1
charge -1
@<TRIPOS>BOND
     1    16    17    1
     2    17    18   ar
     3    18    19   ar
     4    19    20   ar
     5    20    21    1
     6    20    22   ar
     7    22    23    1
     8    22    24   ar
     9    24     7    1
    10     7     8    2
    11     7     9   am
    12     9    10    1
    13    10    11    1
    14    11    12    1
    15    12    13    1
    16    12     1    1
    17     1     2    1
    18     2     3    1
    19     3     4    1
    20     4    25    1
    21    25    26    1
    22    26    27   ar
    23    27    28   ar
    24    28    29   ar
    25    29    30   ar
    26    30    31   ar
    27    25    32    1
    28    32    33   ar
    29    33    34   ar
    30    34    35   ar
    31    35    36   ar
    32    36    37   ar
    33     4     5    1
    34     5     6    1
    35    12    14    1
    36    14    15    1
    37    24    17   ar
    38    15     9    1
    39     6     1    1
    40    31    26   ar
    41    37    32   ar
@<TRIPOS>MOLECULE
*****
 37 41 0 0 0
SMALL
GASTEIGER

@<TRIPOS>ATOM
      1 N         139.5302  143.0034  161.7962 N.3     1  UNL1       -0.2750
      2 C         138.5477  142.1058  161.1042 C.3     1  UNL1        0.0737
      3 C         138.4838  142.0774  159.6059 C.3     1  UNL1        0.0374
      4 C         139.4025  142.9468  158.7994 C.3     1  UNL1        0.0800
      5 C         140.3850  143.8445  159.4914 C.3     1  UNL1        0.0374
      6 C         140.4489  143.8728  160.9898 C.3     1  UNL1        0.0737
      7 C         141.2970  140.6586  166.7177 C.2     1  UNL1        0.2542
      8 O         142.0807  139.4085  166.4471 O.2     1  UNL1       -0.2697
      9 N         140.7294  141.4496  165.5767 N.am    1  UNL1       -0.2758
     10 C         140.9453  140.9906  164.1650 C.3     1  UNL1        0.0951
     11 C         140.3777  141.7816  163.0240 C.3     1  UNL1        0.0362
     12 C         139.5941  143.0317  163.2945 C.3     1  UNL1        0.0487
     13 C         138.7883  144.2720  163.0447 C.3     1  UNL1        0.0161
     14 C         139.3781  143.4908  164.7061 C.3     1  UNL1        0.0362
     15 C         139.9458  142.6997  165.8472 C.3     1  UNL1        0.0951
     16 C         138.8671  139.7621  168.2315 C.3     1  UNL1        0.0316
     17 C         139.8661  140.6694  168.8862 C.ar    1  UNL1       -0.0058
     18 C         139.6502  141.1284  170.2978 C.ar    1  UNL1        0.0730
     19 C         140.6493  142.0357  170.9525 C.ar    1  UNL1        0.3010
     20 N         141.8643  142.4840  170.1957 N.ar    1  UNL1       -0.1606
     21 O         142.8633  143.3913  170.8504 O.co2   1  UNL1       -0.6190
     22 C         142.0802  142.0250  168.7841 C.ar    1  UNL1        0.2180
     23 C         143.2952  142.4732  168.0271 C.3     1  UNL1        0.1093
     24 C         141.0811  141.1176  168.1293 C.ar    1  UNL1        0.1099
     25 N         139.3386  142.9185  157.3011 N.pl3   1  UNL1       -0.2872
     26 C         140.3466  143.6805  156.4928 C.ar    1  UNL1        0.0516
     27 C         140.0312  145.0670  156.0149 C.ar    1  UNL1        0.0148
     28 C         141.0391  145.8291  155.2067 C.ar    1  UNL1        0.0013
     29 C         142.3623  145.2047  154.8762 C.ar    1  UNL1        0.0001
     30 C         142.6777  143.8183  155.3541 C.ar    1  UNL1        0.0013
     31 C         141.6698  143.0562  156.1624 C.ar    1  UNL1        0.0148
     32 C         138.2667  142.1280  156.6109 C.ar    1  UNL1        0.0710
     33 C         137.0110  142.8083  156.1522 C.ar    1  UNL1        0.0180
     34 C         135.9391  142.0178  155.4620 C.ar    1  UNL1        0.0220
     35 C         136.1229  140.5473  155.2306 C.ar    1  UNL1        0.0990
     36 N         137.3786  139.8671  155.6894 N.ar    1  UNL1       -0.2410
     37 C         138.4505  140.6575  156.3796 C.ar    1  UNL1        0.1136
@<TRIPOS>UNITY_ATOM_ATTR
20 1
charge 1
21 1
charge -1
@<TRIPOS>BOND
     1    16    17    1
     2    17    18   ar
     3    18    19   ar
     4    19    20   ar
     5    20    21    1
     6    20    22   ar
     7    22    23    1
     8    22    24   ar
     9    24     7    1
    10     7     8    2
    11     7     9   am
    12     9    10    1
    13    10    11    1
    14    11    12    1
    15    12    13    1
    16    12     1    1
    17     1     2    1
    18     2     3    1
    19     3     4    1
    20     4    25    1
    21    25    26    1
    22    26    27   ar
    23    27    28   ar
    24    28    29   ar
    25    29    30   ar
    26    30    31   ar
    27    25    32    1
    28    32    33   ar
    29    33    34   ar
    30    34    35   ar
    31    35    36   ar
    32    36    37   ar
    33     4     5    1
    34     5     6    1
    35    12    14    1
    36    14    15    1
    37    24    17   ar
    38    15     9    1
    39     6     1    1
    40    31    26   ar
    41    37    32   ar
@<TRIPOS>MOLECULE
*****
 37 41 0 0 0
SMALL
GASTEIGER

@<TRIPOS>ATOM
      1 N         138.7691  142.0853  161.1409 N.3     1  UNL1       -0.2750
      2 C         138.1627  140.8893  160.4687 C.3     1  UNL1        0.0737
      3 C         138.0874  140.8281  158.9718 C.3     1  UNL1        0.0374
      4 C         138.6185  141.9630  158.1472 C.3     1  UNL1        0.0800
      5 C         139.2248  143.1590  158.8194 C.3     1  UNL1        0.0374
      6 C         139.3001  143.2202  160.3162 C.3     1  UNL1        0.0737
      7 C         140.8735  140.0684  166.0750 C.2     1  UNL1        0.2542
      8 O         141.8082  138.9248  165.8136 O.2     1  UNL1       -0.2697
      9 N         140.1971  140.7611  164.9292 N.am    1  UNL1       -0.2758
     10 C         140.4555  140.3102  163.5221 C.3     1  UNL1        0.0951
     11 C         139.7791  141.0028  162.3764 C.3     1  UNL1        0.0362
     12 C         138.8444  142.1465  162.6377 C.3     1  UNL1        0.0487
     13 C         137.8834  143.2688  162.3792 C.3     1  UNL1        0.0161
     14 C         138.5859  142.5974  164.0448 C.3     1  UNL1        0.0362
     15 C         139.2623  141.9047  165.1906 C.3     1  UNL1        0.0951
     16 C         142.7657  141.9753  167.4105 C.3     1  UNL1        0.0316
     17 C         141.5612  141.4728  168.1498 C.ar    1  UNL1       -0.0058
     18 C         141.3027  141.9237  169.5569 C.ar    1  UNL1        0.0730
     19 C         140.0982  141.4212  170.2962 C.ar    1  UNL1        0.3010
     20 N         139.1521  140.4678  169.6285 N.ar    1  UNL1       -0.1606
     21 O         137.9476  139.9653  170.3678 O.co2   1  UNL1       -0.6190
     22 C         139.4105  140.0169  168.2214 C.ar    1  UNL1        0.2180
     23 C         138.4644  139.0635  167.5536 C.3     1  UNL1        0.1093
     24 C         140.6151  140.5194  167.4821 C.ar    1  UNL1        0.1099
     25 N         138.5432  141.9019  156.6503 N.pl3   1  UNL1       -0.2872
     26 C         139.5012  142.7013  155.8178 C.ar    1  UNL1        0.0516
     27 C         139.0313  143.9413  155.1166 C.ar    1  UNL1        0.0148
     28 C         139.9893  144.7408  154.2841 C.ar    1  UNL1        0.0013
     29 C         141.4171  144.3003  154.1527 C.ar    1  UNL1        0.0001
     30 C         141.8870  143.0603  154.8539 C.ar    1  UNL1        0.0013
     31 C         140.9291  142.2608  155.6864 C.ar    1  UNL1        0.0148
     32 C         137.5098  141.0412  155.9859 C.ar    1  UNL1        0.0710
     33 C         136.0889  141.5126  155.8921 C.ar    1  UNL1        0.0180
     34 C         135.0555  140.6519  155.2277 C.ar    1  UNL1        0.0220
     35 C         135.4430  139.3199  154.6572 C.ar    1  UNL1        0.0990
     36 N         136.8639  138.8485  154.7510 N.ar    1  UNL1       -0.2410
     37 C         137.8973  139.7092  155.4154 C.ar    1  UNL1        0.1136
@<TRIPOS>UNITY_ATOM_ATTR
20 1
charge 1
21 1
charge -1
@<TRIPOS>BOND
     1    16    17    1
     2    17    18   ar
     3    18    19   ar
     4    19    20   ar
     5    20    21    1
     6    20    22   ar
     7    22    23    1
     8    22    24   ar
     9    24     7    1
    10     7     8    2
    11     7     9   am
    12     9    10    1
    13    10    11    1
    14    11    12    1
    15    12    13    1
    16    12     1    1
    17     1     2    1
    18     2     3    1
    19     3     4    1
    20     4    25    1
    21    25    26    1
    22    26    27   ar
    23    27    28   ar
    24    28    29   ar
    25    29    30   ar
    26    30    31   ar
    27    25    32    1
    28    32    33   ar
    29    33    34   ar
    30    34    35   ar
    31    35    36   ar
    32    36    37   ar
    33     4     5    1
    34     5     6    1
    35    12    14    1
    36    14    15    1
    37    24    17   ar
    38    15     9    1
    39     6     1    1
    40    31    26   ar
    41    37    32   ar
@<TRIPOS>MOLECULE
*****
 37 41 0 0 0
SMALL
GASTEIGER

@<TRIPOS>ATOM
      1 N         139.3065  142.8754  161.5312 N.3     1  UNL1       -0.2750
      2 C         138.5126  141.8510  160.7762 C.3     1  UNL1        0.0737
      3 C         138.4975  141.8700  159.2764 C.3     1  UNL1        0.0374
      4 C         139.2763  142.9135  158.5316 C.3     1  UNL1        0.0800
      5 C         140.0702  143.9380  159.2867 C.3     1  UNL1        0.0374
      6 C         140.0853  143.9190  160.7865 C.3     1  UNL1        0.0737
      7 C         141.1805  140.5683  166.4308 C.2     1  UNL1        0.2542
      8 O         142.1094  139.4254  166.1464 O.2     1  UNL1       -0.2697
      9 N         140.5609  141.3310  165.2976 N.am    1  UNL1       -0.2758
     10 C         140.8702  140.9508  163.8799 C.3     1  UNL1        0.0951
     11 C         140.2505  141.7135  162.7466 C.3     1  UNL1        0.0362
     12 C         139.3216  142.8564  163.0310 C.3     1  UNL1        0.0487
     13 C         138.3875  144.0059  162.7946 C.3     1  UNL1        0.0161
     14 C         139.0123  143.2366  164.4487 C.3     1  UNL1        0.0362
     15 C         139.6320  142.4739  165.5820 C.3     1  UNL1        0.0951
     16 C         138.7023  139.5210  167.7582 C.3     1  UNL1        0.0316
     17 C         139.6322  140.4248  168.5122 C.ar    1  UNL1       -0.0058
     18 C         139.3230  140.8050  169.9299 C.ar    1  UNL1        0.0730
     19 C         140.2528  141.7088  170.6839 C.ar    1  UNL1        0.3010
     20 N         141.4919  142.2324  170.0202 N.ar    1  UNL1       -0.1606
     21 O         142.4217  143.1363  170.7742 O.co2   1  UNL1       -0.6190
     22 C         141.8011  141.8523  168.6026 C.ar    1  UNL1        0.2180
     23 C         143.0402  142.3759  167.9388 C.3     1  UNL1        0.1093
     24 C         140.8712  140.9484  167.8486 C.ar    1  UNL1        0.1099
     25 N         139.2611  142.9325  157.0318 N.pl3   1  UNL1       -0.2872
     26 C         138.1751  142.2180  156.2836 C.ar    1  UNL1        0.0516
     27 C         136.8797  142.9164  155.9934 C.ar    1  UNL1        0.0148
     28 C         135.7936  142.2020  155.2452 C.ar    1  UNL1        0.0013
     29 C         136.0029  140.7891  154.7870 C.ar    1  UNL1        0.0001
     30 C         137.2983  140.0907  155.0771 C.ar    1  UNL1        0.0013
     31 C         138.3844  140.8051  155.8254 C.ar    1  UNL1        0.0148
     32 C         140.3321  143.6662  156.2803 C.ar    1  UNL1        0.0710
     33 C         140.0526  145.0262  155.7127 C.ar    1  UNL1        0.0180
     34 C         141.1236  145.7598  154.9611 C.ar    1  UNL1        0.0220
     35 C         142.4740  145.1334  154.7771 C.ar    1  UNL1        0.0990
     36 N         142.7535  143.7733  155.3446 N.ar    1  UNL1       -0.2410
     37 C         141.6825  143.0397  156.0962 C.ar    1  UNL1        0.1136
@<TRIPOS>UNITY_ATOM_ATTR
20 1
charge 1
21 1
charge -1
@<TRIPOS>BOND
     1    16    17    1
     2    17    18   ar
     3    18    19   ar
     4    19    20   ar
     5    20    21    1
     6    20    22   ar
     7    22    23    1
     8    22    24   ar
     9    24     7    1
    10     7     8    2
    11     7     9   am
    12     9    10    1
    13    10    11    1
    14    11    12    1
    15    12    13    1
    16    12     1    1
    17     1     2    1
    18     2     3    1
    19     3     4    1
    20     4    25    1
    21    25    26    1
    22    26    27   ar
    23    27    28   ar
    24    28    29   ar
    25    29    30   ar
    26    30    31   ar
    27    25    32    1
    28    32    33   ar
    29    33    34   ar
    30    34    35   ar
    31    35    36   ar
    32    36    37   ar
    33     4     5    1
    34     5     6    1
    35    12    14    1
    36    14    15    1
    37    24    17   ar
    38    15     9    1
    39     6     1    1
    40    31    26   ar
    41    37    32   ar
@<TRIPOS>MOLECULE
*****
 37 41 0 0 0
SMALL
GASTEIGER

@<TRIPOS>ATOM
      1 N         139.5359  143.4664  161.1697 N.3     1  UNL1       -0.2750
      2 C         140.2079  144.5198  160.3399 C.3     1  UNL1        0.0737
      3 C         140.0169  144.5377  158.8522 C.3     1  UNL1        0.0374
      4 C         139.1539  143.5021  158.1943 C.3     1  UNL1        0.0800
      5 C         138.4819  142.4486  159.0241 C.3     1  UNL1        0.0374
      6 C         138.6729  142.4307  160.5118 C.3     1  UNL1        0.0737
      7 C         141.3828  140.7900  165.8885 C.2     1  UNL1        0.2542
      8 O         141.9712  139.4564  165.5342 O.2     1  UNL1       -0.2697
      9 N         140.8309  141.6762  164.8115 N.am    1  UNL1       -0.2758
     10 C         140.8672  141.2288  163.3801 C.3     1  UNL1        0.0951
     11 C         140.3153  142.1149  162.3031 C.3     1  UNL1        0.0362
     12 C         139.7269  143.4485  162.6573 C.3     1  UNL1        0.0487
     13 C         139.0722  144.7882  162.4949 C.3     1  UNL1        0.0161
     14 C         139.6905  143.8959  164.0886 C.3     1  UNL1        0.0362
     15 C         140.2425  143.0097  165.1657 C.3     1  UNL1        0.0951
     16 C         143.5263  142.6015  166.9488 C.3     1  UNL1        0.0316
     17 C         142.4182  142.1431  167.8499 C.ar    1  UNL1       -0.0058
     18 C         142.3817  142.5904  169.2812 C.ar    1  UNL1        0.0730
     19 C         141.2736  142.1320  170.1823 C.ar    1  UNL1        0.3010
     20 N         140.2019  141.2263  169.6521 N.ar    1  UNL1       -0.1606
     21 O         139.0938  140.7679  170.5532 O.co2   1  UNL1       -0.6190
     22 C         140.2383  140.7790  168.2209 C.ar    1  UNL1        0.2180
     23 C         139.1666  139.8732  167.6907 C.3     1  UNL1        0.1093
     24 C         141.3465  141.2374  167.3198 C.ar    1  UNL1        0.1099
     25 N         138.9629  143.5200  156.7066 N.pl3   1  UNL1       -0.2872
     26 C         138.1661  142.4383  156.0396 C.ar    1  UNL1        0.0516
     27 C         138.8319  141.1556  155.6377 C.ar    1  UNL1        0.0148
     28 C         138.0351  140.0739  154.9707 C.ar    1  UNL1        0.0013
     29 C         136.5724  140.2748  154.7056 C.ar    1  UNL1        0.0001
     30 C         135.9066  141.5575  155.1075 C.ar    1  UNL1        0.0013
     31 C         136.7034  142.6392  155.7745 C.ar    1  UNL1        0.0148
     32 C         139.5689  144.6196  155.8859 C.ar    1  UNL1        0.0710
     33 C         138.8214  145.9044  155.6847 C.ar    1  UNL1        0.0180
     34 C         139.4273  147.0041  154.8639 C.ar    1  UNL1        0.0220
     35 C         140.7808  146.8189  154.2444 C.ar    1  UNL1        0.0990
     36 N         141.5283  145.5342  154.4456 N.ar    1  UNL1       -0.2410
     37 C         140.9224  144.4345  155.2664 C.ar    1  UNL1        0.1136
@<TRIPOS>UNITY_ATOM_ATTR
20 1
charge 1
21 1
charge -1
@<TRIPOS>BOND
     1    16    17    1
     2    17    18   ar
     3    18    19   ar
     4    19    20   ar
     5    20    21    1
     6    20    22   ar
     7    22    23    1
     8    22    24   ar
     9    24     7    1
    10     7     8    2
    11     7     9   am
    12     9    10    1
    13    10    11    1
    14    11    12    1
    15    12    13    1
    16    12     1    1
    17     1     2    1
    18     2     3    1
    19     3     4    1
    20     4    25    1
    21    25    26    1
    22    26    27   ar
    23    27    28   ar
    24    28    29   ar
    25    29    30   ar
    26    30    31   ar
    27    25    32    1
    28    32    33   ar
    29    33    34   ar
    30    34    35   ar
    31    35    36   ar
    32    36    37   ar
    33     4     5    1
    34     5     6    1
    35    12    14    1
    36    14    15    1
    37    24    17   ar
    38    15     9    1
    39     6     1    1
    40    31    26   ar
    41    37    32   ar
@<TRIPOS>MOLECULE
*****
 37 41 0 0 0
SMALL
GASTEIGER

@<TRIPOS>ATOM
      1 N         138.9716  141.1726  161.7101 N.3     1  UNL1       -0.2750
      2 C         138.9401  140.0188  160.7523 C.3     1  UNL1        0.0737
      3 C         138.8197  140.2705  159.2785 C.3     1  UNL1        0.0374
      4 C         138.7308  141.6762  158.7625 C.3     1  UNL1        0.0800
      5 C         138.7623  142.8301  159.7204 C.3     1  UNL1        0.0374
      6 C         138.8827  142.5783  161.1942 C.3     1  UNL1        0.0737
      7 C         141.9005  141.7409  166.6030 C.2     1  UNL1        0.2542
      8 O         143.1726  142.4988  166.3634 O.2     1  UNL1       -0.2697
      9 N         140.9643  141.4676  165.4633 N.am    1  UNL1       -0.2758
     10 C         141.3002  141.9522  164.0840 C.3     1  UNL1        0.0951
     11 C         140.3640  141.6788  162.9444 C.3     1  UNL1        0.0362
     12 C         139.0920  140.9209  163.1839 C.3     1  UNL1        0.0487
     13 C         137.7781  140.2504  162.9117 C.3     1  UNL1        0.0161
     14 C         138.7561  140.4363  164.5632 C.3     1  UNL1        0.0362
     15 C         139.6923  140.7097  165.7029 C.3     1  UNL1        0.0951
     16 C         142.8882  139.0659  167.5351 C.3     1  UNL1        0.0316
     17 C         142.0585  139.9189  168.4483 C.ar    1  UNL1       -0.0058
     18 C         141.7226  139.4343  169.8275 C.ar    1  UNL1        0.0730
     19 C         140.8928  140.2873  170.7408 C.ar    1  UNL1        0.3010
     20 N         140.3990  141.6248  170.2748 N.ar    1  UNL1       -0.1606
     21 O         139.5693  142.4777  171.1880 O.co2   1  UNL1       -0.6190
     22 C         140.7349  142.1093  168.8955 C.ar    1  UNL1        0.2180
     23 C         140.2410  143.4468  168.4294 C.3     1  UNL1        0.1093
     24 C         141.5646  141.2563  167.9823 C.ar    1  UNL1        0.1099
     25 N         138.6104  141.9279  157.2887 N.pl3   1  UNL1       -0.2872
     26 C         139.3268  143.0889  156.6651 C.ar    1  UNL1        0.0516
     27 C         138.5453  144.1805  155.9959 C.ar    1  UNL1        0.0148
     28 C         139.2616  145.3416  155.3723 C.ar    1  UNL1        0.0013
     29 C         140.7592  145.4110  155.4178 C.ar    1  UNL1        0.0001
     30 C         141.5407  144.3194  156.0870 C.ar    1  UNL1        0.0013
     31 C         140.8245  143.1584  156.7106 C.ar    1  UNL1        0.0148
     32 C         137.7736  141.0186  156.4385 C.ar    1  UNL1        0.0710
     33 C         138.4271  140.1337  155.4186 C.ar    1  UNL1        0.0180
     34 C         137.5903  139.2244  154.5683 C.ar    1  UNL1        0.0220
     35 C         136.1001  139.1999  154.7379 C.ar    1  UNL1        0.0990
     36 N         135.4467  140.0847  155.7578 N.ar    1  UNL1       -0.2410
     37 C         136.2835  140.9941  156.6080 C.ar    1  UNL1        0.1136
@<TRIPOS>UNITY_ATOM_ATTR
20 1
charge 1
21 1
charge -1
@<TRIPOS>BOND
     1    16    17    1
     2    17    18   ar
     3    18    19   ar
     4    19    20   ar
     5    20    21    1
     6    20    22   ar
     7    22    23    1
     8    22    24   ar
     9    24     7    1
    10     7     8    2
    11     7     9   am
    12     9    10    1
    13    10    11    1
    14    11    12    1
    15    12    13    1
    16    12     1    1
    17     1     2    1
    18     2     3    1
    19     3     4    1
    20     4    25    1
    21    25    26    1
    22    26    27   ar
    23    27    28   ar
    24    28    29   ar
    25    29    30   ar
    26    30    31   ar
    27    25    32    1
    28    32    33   ar
    29    33    34   ar
    30    34    35   ar
    31    35    36   ar
    32    36    37   ar
    33     4     5    1
    34     5     6    1
    35    12    14    1
    36    14    15    1
    37    24    17   ar
    38    15     9    1
    39     6     1    1
    40    31    26   ar
    41    37    32   ar
