@<TRIPOS>MOLECULE
*****
 24 27 0 0 0
SMALL
GASTEIGER

@<TRIPOS>ATOM
      1 C         139.7606  140.7829  167.1460 C.ar    1  UNL1        0.1350
      2 N         139.0305  139.5598  167.6160 N.ar    1  UNL1       -0.2160
      3 C         138.0361  138.8880  166.7162 C.ar    1  UNL1        0.1415
      4 C         137.3059  137.6647  167.1862 C.3     1  UNL1        0.0737
      5 N         137.7717  139.4392  165.3464 N.ar    1  UNL1       -0.2241
      6 C         138.5018  140.6624  164.8765 C.ar    1  UNL1        0.1147
      7 S         138.4502  141.4290  163.5883 S.2     1  UNL1       -0.0679
      8 C         139.4128  142.5747  163.6919 C.ar    1  UNL1        0.0310
      9 C         140.0594  142.5161  165.0442 C.ar    1  UNL1        0.0113
     10 C         139.4963  141.3342  165.7763 C.ar    1  UNL1        0.0560
     11 N         142.7440  142.7985  169.8455 N.3     1  UNL1       -0.2698
     12 C         143.2048  141.7761  168.8494 C.3     1  UNL1        0.0939
     13 C         142.2104  141.1042  167.9495 C.3     1  UNL1        0.1095
     14 N         140.7551  141.4547  168.0459 N.pl3   1  UNL1       -0.2903
     15 C         140.2943  142.4772  169.0420 C.3     1  UNL1        0.1095
     16 C         141.2887  143.1490  169.9418 C.3     1  UNL1        0.0939
     17 C         145.2066  143.3530  170.4607 C.3     1  UNL1        0.0188
     18 C         143.7384  143.4703  170.7453 C.3     1  UNL1        0.0722
     19 C         139.6818  143.5992  162.6298 C.ar    1  UNL1        0.0060
     20 C         140.1889  143.1700  161.2850 C.ar    1  UNL1        0.0005
     21 C         140.4578  144.1945  160.2229 C.ar    1  UNL1        0.0000
     22 C         140.2196  145.6483  160.5056 C.ar    1  UNL1        0.0000
     23 C         139.7125  146.0775  161.8504 C.ar    1  UNL1        0.0000
     24 C         139.4436  145.0529  162.9125 C.ar    1  UNL1        0.0005
@<TRIPOS>BOND
     1    17    18    1
     2    18    11    1
     3    11    12    1
     4    12    13    1
     5    13    14    1
     6    14     1    1
     7     1     2   ar
     8     2     3   ar
     9     3     4    1
    10     3     5   ar
    11     5     6   ar
    12     6     7   ar
    13     7     8   ar
    14     8    19    1
    15    19    20   ar
    16    20    21   ar
    17    21    22   ar
    18    22    23   ar
    19    23    24   ar
    20     8     9   ar
    21     9    10   ar
    22    14    15    1
    23    15    16    1
    24    16    11    1
    25    10     1   ar
    26    10     6   ar
    27    24    19   ar
@<TRIPOS>MOLECULE
*****
 24 27 0 0 0
SMALL
GASTEIGER

@<TRIPOS>ATOM
      1 C         142.6400  138.4982  158.0252 C.ar    1  UNL1        0.1350
      2 N         143.2162  139.8388  157.6776 N.ar    1  UNL1       -0.2160
      3 C         144.1172  139.9820  156.4870 C.ar    1  UNL1        0.1415
      4 C         144.6934  141.3227  156.1395 C.3     1  UNL1        0.0737
      5 N         144.4420  138.7847  155.6438 N.ar    1  UNL1       -0.2241
      6 C         143.8659  137.4441  155.9914 C.ar    1  UNL1        0.1147
      7 S         144.0063  136.0948  155.3513 S.2     1  UNL1       -0.0679
      8 C         143.1921  135.1176  156.1464 C.ar    1  UNL1        0.0310
      9 C         142.5484  135.8630  157.2779 C.ar    1  UNL1        0.0113
     10 C         142.9649  137.3008  157.1821 C.ar    1  UNL1        0.0560
     11 N         139.9371  138.0684  161.5973 N.3     1  UNL1       -0.2698
     12 C         139.3600  138.4195  160.2580 C.3     1  UNL1        0.0939
     13 C         140.2610  138.5627  159.0672 C.3     1  UNL1        0.1095
     14 N         141.7390  138.3549  159.2159 N.pl3   1  UNL1       -0.2903
     15 C         142.3162  138.0039  160.5552 C.3     1  UNL1        0.1095
     16 C         141.4153  137.8606  161.7458 C.3     1  UNL1        0.0939
     17 C         139.6223  137.6814  164.1470 C.3     1  UNL1        0.0188
     18 C         139.0362  137.9252  162.7879 C.3     1  UNL1        0.0722
     19 C         143.0469  133.6523  155.8603 C.ar    1  UNL1        0.0060
     20 C         144.2436  132.7512  155.9365 C.ar    1  UNL1        0.0005
     21 C         144.0984  131.2859  155.6504 C.ar    1  UNL1        0.0000
     22 C         142.7566  130.7217  155.2881 C.ar    1  UNL1        0.0000
     23 C         141.5599  131.6229  155.2118 C.ar    1  UNL1        0.0000
     24 C         141.7051  133.0882  155.4980 C.ar    1  UNL1        0.0005
@<TRIPOS>BOND
     1    17    18    1
     2    18    11    1
     3    11    12    1
     4    12    13    1
     5    13    14    1
     6    14     1    1
     7     1     2   ar
     8     2     3   ar
     9     3     4    1
    10     3     5   ar
    11     5     6   ar
    12     6     7   ar
    13     7     8   ar
    14     8    19    1
    15    19    20   ar
    16    20    21   ar
    17    21    22   ar
    18    22    23   ar
    19    23    24   ar
    20     8     9   ar
    21     9    10   ar
    22    14    15    1
    23    15    16    1
    24    16    11    1
    25    10     1   ar
    26    10     6   ar
    27    24    19   ar
@<TRIPOS>MOLECULE
*****
 24 27 0 0 0
SMALL
GASTEIGER

@<TRIPOS>ATOM
      1 C         142.6147  138.8968  158.6058 C.ar    1  UNL1        0.1350
      2 N         143.3801  140.1868  158.6083 N.ar    1  UNL1       -0.2160
      3 C         144.3207  140.5030  157.4836 C.ar    1  UNL1        0.1415
      4 C         145.0861  141.7931  157.4861 C.3     1  UNL1        0.0737
      5 N         144.4960  139.5291  156.3561 N.ar    1  UNL1       -0.2241
      6 C         143.7306  138.2391  156.3537 C.ar    1  UNL1        0.1147
      7 S         143.6972  137.0938  155.3856 S.2     1  UNL1       -0.0679
      8 C         142.7359  136.0698  155.9122 C.ar    1  UNL1        0.0310
      9 C         142.1752  136.5822  157.2057 C.ar    1  UNL1        0.0113
     10 C         142.7899  137.9230  157.4785 C.ar    1  UNL1        0.0560
     11 N         139.7927  137.9484  161.9804 N.3     1  UNL1       -0.2698
     12 C         141.2704  137.7694  162.1656 C.3     1  UNL1        0.0939
     13 C         142.2112  138.0855  161.0408 C.3     1  UNL1        0.1095
     14 N         141.6741  138.5807  159.7307 N.pl3   1  UNL1       -0.2903
     15 C         140.1963  138.7597  159.5454 C.3     1  UNL1        0.1095
     16 C         139.2557  138.4436  160.6702 C.3     1  UNL1        0.0939
     17 C         139.3485  137.6330  164.5207 C.3     1  UNL1        0.0188
     18 C         138.8521  137.6322  163.1051 C.3     1  UNL1        0.0722
     19 C         142.3952  134.7627  155.2599 C.ar    1  UNL1        0.0060
     20 C         142.2542  133.5231  156.0927 C.ar    1  UNL1        0.0005
     21 C         141.9134  132.2161  155.4403 C.ar    1  UNL1        0.0000
     22 C         141.7137  132.1486  153.9552 C.ar    1  UNL1        0.0000
     23 C         141.8546  133.3882  153.1224 C.ar    1  UNL1        0.0000
     24 C         142.1954  134.6953  153.7748 C.ar    1  UNL1        0.0005
@<TRIPOS>BOND
     1    17    18    1
     2    18    11    1
     3    11    12    1
     4    12    13    1
     5    13    14    1
     6    14     1    1
     7     1     2   ar
     8     2     3   ar
     9     3     4    1
    10     3     5   ar
    11     5     6   ar
    12     6     7   ar
    13     7     8   ar
    14     8    19    1
    15    19    20   ar
    16    20    21   ar
    17    21    22   ar
    18    22    23   ar
    19    23    24   ar
    20     8     9   ar
    21     9    10   ar
    22    14    15    1
    23    15    16    1
    24    16    11    1
    25    10     1   ar
    26    10     6   ar
    27    24    19   ar
@<TRIPOS>MOLECULE
*****
 24 27 0 0 0
SMALL
GASTEIGER

@<TRIPOS>ATOM
      1 C         140.9237  142.4792  162.3406 C.ar    1  UNL1        0.1350
      2 N         140.5350  143.7505  161.6458 N.ar    1  UNL1       -0.2160
      3 C         140.0723  144.9315  162.4463 C.ar    1  UNL1        0.1415
      4 C         139.6836  146.2028  161.7514 C.3     1  UNL1        0.0737
      5 N         139.9982  144.8414  163.9418 N.ar    1  UNL1       -0.2241
      6 C         140.3869  143.5701  164.6367 C.ar    1  UNL1        0.1147
      7 S         140.4167  143.1876  166.0868 S.2     1  UNL1       -0.0679
      8 C         140.8978  141.7701  166.1823 C.ar    1  UNL1        0.0310
      9 C         141.1654  141.2765  164.7914 C.ar    1  UNL1        0.0113
     10 C         140.8497  142.3890  163.8361 C.ar    1  UNL1        0.0560
     11 N         142.3119  138.9360  159.9388 N.3     1  UNL1       -0.2698
     12 C         143.2942  139.9891  160.3582 C.3     1  UNL1        0.0939
     13 C         142.8316  141.1702  161.1588 C.3     1  UNL1        0.1095
     14 N         141.3865  141.2982  161.5400 N.pl3   1  UNL1       -0.2903
     15 C         140.4041  140.2450  161.1206 C.3     1  UNL1        0.1095
     16 C         140.8668  139.0640  160.3201 C.3     1  UNL1        0.0939
     17 C         142.7026  137.7896  157.6403 C.3     1  UNL1        0.0188
     18 C         142.7746  137.7550  159.1382 C.3     1  UNL1        0.0722
     19 C         141.0795  140.9840  167.4469 C.ar    1  UNL1        0.0060
     20 C         142.3515  140.2245  167.6817 C.ar    1  UNL1        0.0005
     21 C         142.5330  139.4385  168.9464 C.ar    1  UNL1        0.0000
     22 C         141.4427  139.4119  169.9761 C.ar    1  UNL1        0.0000
     23 C         140.1707  140.1714  169.7413 C.ar    1  UNL1        0.0000
     24 C         139.9891  140.9575  168.4767 C.ar    1  UNL1        0.0005
@<TRIPOS>BOND
     1    17    18    1
     2    18    11    1
     3    11    12    1
     4    12    13    1
     5    13    14    1
     6    14     1    1
     7     1     2   ar
     8     2     3   ar
     9     3     4    1
    10     3     5   ar
    11     5     6   ar
    12     6     7   ar
    13     7     8   ar
    14     8    19    1
    15    19    20   ar
    16    20    21   ar
    17    21    22   ar
    18    22    23   ar
    19    23    24   ar
    20     8     9   ar
    21     9    10   ar
    22    14    15    1
    23    15    16    1
    24    16    11    1
    25    10     1   ar
    26    10     6   ar
    27    24    19   ar
@<TRIPOS>MOLECULE
*****
 24 27 0 0 0
SMALL
GASTEIGER

@<TRIPOS>ATOM
      1 C         142.0953  140.8406  162.3848 C.ar    1  UNL1        0.1350
      2 N         142.8236  139.8100  161.5741 N.ar    1  UNL1       -0.2160
      3 C         143.3271  138.5584  162.2297 C.ar    1  UNL1        0.1415
      4 C         144.0555  137.5278  161.4188 C.3     1  UNL1        0.0737
      5 N         143.1023  138.3373  163.6962 N.ar    1  UNL1       -0.2241
      6 C         142.3740  139.3679  164.5070 C.ar    1  UNL1        0.1147
      7 S         142.0062  139.4256  165.9601 S.2     1  UNL1       -0.0679
      8 C         141.2754  140.7129  166.2024 C.ar    1  UNL1        0.0310
      9 C         141.1915  141.4508  164.8992 C.ar    1  UNL1        0.0113
     10 C         141.8705  140.6195  163.8513 C.ar    1  UNL1        0.0560
     11 N         140.5848  144.5955  160.4178 N.3     1  UNL1       -0.2698
     12 C         139.8640  143.2969  160.2082 C.3     1  UNL1        0.0939
     13 C         140.3674  142.0452  160.8639 C.3     1  UNL1        0.1095
     14 N         141.5918  142.0922  161.7291 N.pl3   1  UNL1       -0.2903
     15 C         142.3127  143.3909  161.9387 C.3     1  UNL1        0.1095
     16 C         141.8093  144.6424  161.2830 C.3     1  UNL1        0.0939
     17 C         140.1629  145.9981  158.2719 C.3     1  UNL1        0.0188
     18 C         140.0814  145.8471  159.7621 C.3     1  UNL1        0.0722
     19 C         140.7251  141.1803  167.5172 C.ar    1  UNL1        0.0060
     20 C         139.9152  140.2458  168.3662 C.ar    1  UNL1        0.0005
     21 C         139.3649  140.7133  169.6810 C.ar    1  UNL1        0.0000
     22 C         139.6244  142.1153  170.1468 C.ar    1  UNL1        0.0000
     23 C         140.4343  143.0498  169.2979 C.ar    1  UNL1        0.0000
     24 C         140.9846  142.5823  167.9831 C.ar    1  UNL1        0.0005
@<TRIPOS>BOND
     1    17    18    1
     2    18    11    1
     3    11    12    1
     4    12    13    1
     5    13    14    1
     6    14     1    1
     7     1     2   ar
     8     2     3   ar
     9     3     4    1
    10     3     5   ar
    11     5     6   ar
    12     6     7   ar
    13     7     8   ar
    14     8    19    1
    15    19    20   ar
    16    20    21   ar
    17    21    22   ar
    18    22    23   ar
    19    23    24   ar
    20     8     9   ar
    21     9    10   ar
    22    14    15    1
    23    15    16    1
    24    16    11    1
    25    10     1   ar
    26    10     6   ar
    27    24    19   ar
@<TRIPOS>MOLECULE
*****
 24 27 0 0 0
SMALL
GASTEIGER

@<TRIPOS>ATOM
      1 C         140.0289  143.2801  157.8586 C.ar    1  UNL1        0.1350
      2 N         139.5637  141.8808  157.5837 N.ar    1  UNL1       -0.2160
      3 C         138.6491  141.6083  156.4265 C.ar    1  UNL1        0.1415
      4 C         138.1838  140.2089  156.1516 C.3     1  UNL1        0.0737
      5 N         138.1998  142.7350  155.5441 N.ar    1  UNL1       -0.2241
      6 C         138.6650  144.1343  155.8190 C.ar    1  UNL1        0.1147
      7 S         138.3911  145.4370  155.1277 S.2     1  UNL1       -0.0679
      8 C         139.1365  146.5147  155.8578 C.ar    1  UNL1        0.0310
      9 C         139.8710  145.8780  157.0002 C.ar    1  UNL1        0.0113
     10 C         139.5796  144.4068  156.9762 C.ar    1  UNL1        0.0560
     11 N         142.7727  144.0977  161.3304 N.3     1  UNL1       -0.2698
     12 C         143.2355  143.2317  160.1965 C.3     1  UNL1        0.0939
     13 C         142.3209  142.9591  159.0392 C.3     1  UNL1        0.1095
     14 N         140.9435  143.5526  159.0159 N.pl3   1  UNL1       -0.2903
     15 C         140.4807  144.4187  160.1499 C.3     1  UNL1        0.1095
     16 C         141.3952  144.6912  161.3071 C.3     1  UNL1        0.0939
     17 C         143.1765  145.1082  163.6897 C.3     1  UNL1        0.0188
     18 C         143.6872  144.3702  162.4876 C.3     1  UNL1        0.0722
     19 C         139.1457  147.9731  155.5071 C.ar    1  UNL1        0.0060
     20 C         138.4922  148.9681  156.4197 C.ar    1  UNL1        0.0005
     21 C         138.5015  150.4265  156.0689 C.ar    1  UNL1        0.0000
     22 C         139.1642  150.8899  154.8055 C.ar    1  UNL1        0.0000
     23 C         139.8177  149.8949  153.8929 C.ar    1  UNL1        0.0000
     24 C         139.8084  148.4365  154.2437 C.ar    1  UNL1        0.0005
@<TRIPOS>BOND
     1    17    18    1
     2    18    11    1
     3    11    12    1
     4    12    13    1
     5    13    14    1
     6    14     1    1
     7     1     2   ar
     8     2     3   ar
     9     3     4    1
    10     3     5   ar
    11     5     6   ar
    12     6     7   ar
    13     7     8   ar
    14     8    19    1
    15    19    20   ar
    16    20    21   ar
    17    21    22   ar
    18    22    23   ar
    19    23    24   ar
    20     8     9   ar
    21     9    10   ar
    22    14    15    1
    23    15    16    1
    24    16    11    1
    25    10     1   ar
    26    10     6   ar
    27    24    19   ar
@<TRIPOS>MOLECULE
*****
 24 27 0 0 0
SMALL
GASTEIGER

@<TRIPOS>ATOM
      1 C         140.2246  140.6545  158.5824 C.ar    1  UNL1        0.1350
      2 N         140.1807  141.8983  157.7452 N.ar    1  UNL1       -0.2160
      3 C         139.6478  143.1746  158.3256 C.ar    1  UNL1        0.1415
      4 C         139.6040  144.4185  157.4883 C.3     1  UNL1        0.0737
      5 N         139.1587  143.2072  159.7433 N.ar    1  UNL1       -0.2241
      6 C         139.2026  141.9634  160.5805 C.ar    1  UNL1        0.1147
      7 S         138.7934  141.6927  161.9980 S.2     1  UNL1       -0.0679
      8 C         139.0735  140.2491  162.2936 C.ar    1  UNL1        0.0310
      9 C         139.6557  139.6275  161.0588 C.ar    1  UNL1        0.0113
     10 C         139.7355  140.6870  160.0000 C.ar    1  UNL1        0.0560
     11 N         141.8232  136.8254  156.8410 N.3     1  UNL1       -0.2698
     12 C         142.7036  137.6836  157.7001 C.3     1  UNL1        0.0939
     13 C         142.1708  138.9600  158.2806 C.3     1  UNL1        0.1095
     14 N         140.7575  139.3781  158.0019 N.pl3   1  UNL1       -0.2903
     15 C         139.8770  138.5198  157.1427 C.3     1  UNL1        0.1095
     16 C         140.4098  137.2435  156.5623 C.3     1  UNL1        0.0939
     17 C         143.7946  135.4568  155.8457 C.3     1  UNL1        0.0188
     18 C         142.3560  135.5491  156.2605 C.3     1  UNL1        0.0722
     19 C         138.8164  139.5497  163.5954 C.ar    1  UNL1        0.0060
     20 C         138.2872  140.3198  164.7688 C.ar    1  UNL1        0.0005
     21 C         138.0302  139.6204  166.0707 C.ar    1  UNL1        0.0000
     22 C         138.3024  138.1509  166.1992 C.ar    1  UNL1        0.0000
     23 C         138.8316  137.3808  165.0258 C.ar    1  UNL1        0.0000
     24 C         139.0887  138.0802  163.7239 C.ar    1  UNL1        0.0005
@<TRIPOS>BOND
     1    17    18    1
     2    18    11    1
     3    11    12    1
     4    12    13    1
     5    13    14    1
     6    14     1    1
     7     1     2   ar
     8     2     3   ar
     9     3     4    1
    10     3     5   ar
    11     5     6   ar
    12     6     7   ar
    13     7     8   ar
    14     8    19    1
    15    19    20   ar
    16    20    21   ar
    17    21    22   ar
    18    22    23   ar
    19    23    24   ar
    20     8     9   ar
    21     9    10   ar
    22    14    15    1
    23    15    16    1
    24    16    11    1
    25    10     1   ar
    26    10     6   ar
    27    24    19   ar
@<TRIPOS>MOLECULE
*****
 24 27 0 0 0
SMALL
GASTEIGER

@<TRIPOS>ATOM
      1 C         143.1686  138.3165  157.2361 C.ar    1  UNL1        0.1350
      2 N         144.0352  139.2802  156.4809 N.ar    1  UNL1       -0.2160
      3 C         144.5200  140.5336  157.1470 C.ar    1  UNL1        0.1415
      4 C         145.3866  141.4974  156.3917 C.3     1  UNL1        0.0737
      5 N         144.1381  140.8236  158.5683 N.ar    1  UNL1       -0.2241
      6 C         143.2714  139.8599  159.3235 C.ar    1  UNL1        0.1147
      7 S         142.7357  139.8774  160.7245 S.2     1  UNL1       -0.0679
      8 C         141.9198  138.6346  160.9241 C.ar    1  UNL1        0.0310
      9 C         141.9514  137.8491  159.6466 C.ar    1  UNL1        0.0113
     10 C         142.7867  138.6064  158.6574 C.ar    1  UNL1        0.0560
     11 N         141.7143  134.5560  155.2376 N.3     1  UNL1       -0.2698
     12 C         143.0483  134.5732  155.9234 C.3     1  UNL1        0.0939
     13 C         143.5331  135.8267  156.5896 C.3     1  UNL1        0.1095
     14 N         142.6839  137.0630  156.5699 N.pl3   1  UNL1       -0.2903
     15 C         141.3499  137.0458  155.8841 C.3     1  UNL1        0.1095
     16 C         140.8651  135.7924  155.2180 C.3     1  UNL1        0.0939
     17 C         141.6061  131.9624  155.1305 C.3     1  UNL1        0.0188
     18 C         141.2296  133.3026  154.5715 C.3     1  UNL1        0.0722
     19 C         141.1990  138.2455  162.1808 C.ar    1  UNL1        0.0060
     20 C         141.9744  137.9622  163.4331 C.ar    1  UNL1        0.0005
     21 C         141.2534  137.5732  164.6897 C.ar    1  UNL1        0.0000
     22 C         139.7572  137.4675  164.6939 C.ar    1  UNL1        0.0000
     23 C         138.9818  137.7508  163.4416 C.ar    1  UNL1        0.0000
     24 C         139.7027  138.1399  162.1850 C.ar    1  UNL1        0.0005
@<TRIPOS>BOND
     1    17    18    1
     2    18    11    1
     3    11    12    1
     4    12    13    1
     5    13    14    1
     6    14     1    1
     7     1     2   ar
     8     2     3   ar
     9     3     4    1
    10     3     5   ar
    11     5     6   ar
    12     6     7   ar
    13     7     8   ar
    14     8    19    1
    15    19    20   ar
    16    20    21   ar
    17    21    22   ar
    18    22    23   ar
    19    23    24   ar
    20     8     9   ar
    21     9    10   ar
    22    14    15    1
    23    15    16    1
    24    16    11    1
    25    10     1   ar
    26    10     6   ar
    27    24    19   ar
@<TRIPOS>MOLECULE
*****
 24 27 0 0 0
SMALL
GASTEIGER

@<TRIPOS>ATOM
      1 C         141.3797  139.3157  156.7522 C.ar    1  UNL1        0.1350
      2 N         142.5409  139.7049  155.8861 N.ar    1  UNL1       -0.2160
      3 C         143.9142  139.8169  156.4788 C.ar    1  UNL1        0.1415
      4 C         145.0755  140.2061  155.6127 C.3     1  UNL1        0.0737
      5 N         144.1264  139.5399  157.9378 N.ar    1  UNL1       -0.2241
      6 C         142.9651  139.1508  158.8038 C.ar    1  UNL1        0.1147
      7 S         142.8684  138.8196  160.2636 S.2     1  UNL1       -0.0679
      8 C         141.4352  138.5029  160.5730 C.ar    1  UNL1        0.0310
      9 C         140.6462  138.6383  159.3044 C.ar    1  UNL1        0.0113
     10 C         141.5918  139.0387  158.2110 C.ar    1  UNL1        0.0560
     11 N         137.2597  138.9794  154.9737 N.3     1  UNL1       -0.2698
     12 C         137.6496  140.2115  155.7351 C.3     1  UNL1        0.0939
     13 C         139.0230  140.3237  156.3280 C.3     1  UNL1        0.1095
     14 N         140.0064  139.2037  156.1594 N.pl3   1  UNL1       -0.2903
     15 C         139.6164  137.9714  155.3979 C.3     1  UNL1        0.1095
     16 C         138.2431  137.8593  154.8051 C.3     1  UNL1        0.0939
     17 C         134.8179  139.8442  154.7736 C.3     1  UNL1        0.0188
     18 C         135.8864  138.8673  154.3810 C.3     1  UNL1        0.0722
     19 C         140.8872  138.1183  161.9153 C.ar    1  UNL1        0.0060
     20 C         141.8223  137.7794  163.0381 C.ar    1  UNL1        0.0005
     21 C         141.2742  137.3948  164.3804 C.ar    1  UNL1        0.0000
     22 C         139.7911  137.3491  164.5999 C.ar    1  UNL1        0.0000
     23 C         138.8560  137.6879  163.4771 C.ar    1  UNL1        0.0000
     24 C         139.4041  138.0725  162.1348 C.ar    1  UNL1        0.0005
@<TRIPOS>BOND
     1    17    18    1
     2    18    11    1
     3    11    12    1
     4    12    13    1
     5    13    14    1
     6    14     1    1
     7     1     2   ar
     8     2     3   ar
     9     3     4    1
    10     3     5   ar
    11     5     6   ar
    12     6     7   ar
    13     7     8   ar
    14     8    19    1
    15    19    20   ar
    16    20    21   ar
    17    21    22   ar
    18    22    23   ar
    19    23    24   ar
    20     8     9   ar
    21     9    10   ar
    22    14    15    1
    23    15    16    1
    24    16    11    1
    25    10     1   ar
    26    10     6   ar
    27    24    19   ar
