@<TRIPOS>MOLECULE
*****
 35 38 0 0 0
SMALL
GASTEIGER

@<TRIPOS>ATOM
      1 C         137.7174  140.7513  161.4218 C.3     1  UNL1        0.2722
      2 O         140.0894  140.9127  160.3740 O.2     1  UNL1       -0.2707
      3 C         138.7438  141.5188  160.6422 C.2     1  UNL1        0.2701
      4 N         138.4245  142.8923  160.1308 N.am    1  UNL1       -0.2663
      5 H         137.5413  143.2901  160.3069 H       1  UNL1        0.1564
      6 C         139.4508  143.6597  159.3513 C.ar    1  UNL1        0.1344
      7 C         140.3681  144.6147  160.0560 C.ar    1  UNL1        0.0368
      8 C         141.3944  145.3821  159.2764 C.ar    1  UNL1        0.0341
      9 C         141.5034  145.1946  157.7921 C.ar    1  UNL1        0.1593
     10 F         142.5297  145.9620  157.0126 F       1  UNL1       -0.2025
     11 C         140.5861  144.2397  157.0875 C.ar    1  UNL1        0.1298
     12 N         139.5597  143.4722  157.8671 N.ar    1  UNL1       -0.2267
     13 C         137.2948  139.3866  160.9650 C.3     1  UNL1        0.1952
     14 O         137.6869  138.1753  161.7582 O.3     1  UNL1       -0.3467
     15 C         138.9412  138.1913  162.5809 C.3     1  UNL1        0.1740
     16 C         140.2593  137.8620  161.9451 C.3     1  UNL1        0.1692
     17 O         141.2053  136.9180  162.6260 O.3     1  UNL1       -0.3794
     18 H         141.5190  137.3154  163.4534 H       1  UNL1        0.2105
     19 O         137.1137  141.3488  162.6582 O.3     1  UNL1       -0.4517
     20 C         137.9404  142.2322  163.5449 C.ar    1  UNL1        0.2312
     21 N         138.0857  143.6905  163.2253 N.ar    1  UNL1       -0.1892
     22 C         138.9124  144.5738  164.1120 C.ar    1  UNL1        0.2029
     23 N         139.5938  143.9988  165.3183 N.ar    1  UNL1       -0.2046
     24 C         139.4485  142.5405  165.6379 C.ar    1  UNL1        0.1715
     25 C         138.6218  141.6572  164.7512 C.ar    1  UNL1        0.1098
     26 C         138.6607  140.2677  165.3149 C.ar    1  UNL1        0.1283
     27 N         139.5114  140.2923  166.5501 N.ar    1  UNL1       -0.1619
     28 N         139.9983  141.6970  166.7497 N.ar    1  UNL1       -0.2111
     29 C         140.8802  142.1743  167.8652 C.ar    1  UNL1        0.0949
     30 C         140.3128  143.0372  168.9531 C.ar    1  UNL1        0.0201
     31 C         141.1946  143.5146  170.0686 C.ar    1  UNL1        0.0016
     32 C         142.6440  143.1291  170.0963 C.ar    1  UNL1        0.0010
     33 C         143.2114  142.2662  169.0084 C.ar    1  UNL1        0.0129
     34 C         142.3295  141.7888  167.8929 C.ar    1  UNL1        0.0753
     35 CL        142.8970  140.9260  166.8051 Cl      1  UNL1       -0.0807
@<TRIPOS>BOND
     1     2     3    2
     2     3     4   am
     3     4     6    1
     4     6     7   ar
     5     7     8   ar
     6     8     9   ar
     7     9    10    1
     8     9    11   ar
     9    11    12   ar
    10     3     1    1
    11     1    13    1
    12    13    14    1
    13    14    15    1
    14    15    16    1
    15    16    17    1
    16     1    19    1
    17    19    20    1
    18    20    21   ar
    19    21    22   ar
    20    22    23   ar
    21    23    24   ar
    22    24    25   ar
    23    25    26   ar
    24    26    27   ar
    25    27    28   ar
    26    28    29    1
    27    29    30   ar
    28    30    31   ar
    29    31    32   ar
    30    32    33   ar
    31    33    34   ar
    32    34    35    1
    33    12     6   ar
    34    25    20   ar
    35    34    29   ar
    36    28    24   ar
    37     4     5    1
    38    17    18    1
@<TRIPOS>MOLECULE
*****
 35 38 0 0 0
SMALL
GASTEIGER

@<TRIPOS>ATOM
      1 C         141.0215  144.7735  160.3315 C.3     1  UNL1        0.2722
      2 O         140.4227  142.2511  160.1610 O.2     1  UNL1       -0.2707
      3 C         141.4243  143.3325  160.4387 C.2     1  UNL1        0.2701
      4 N         142.8289  142.9731  160.8235 N.am    1  UNL1       -0.2663
      5 H         143.4863  143.6829  161.0058 H       1  UNL1        0.1564
      6 C         143.2317  141.5322  160.9307 C.ar    1  UNL1        0.1344
      7 C         143.5167  140.9311  162.2751 C.ar    1  UNL1        0.0368
      8 C         143.9196  139.4902  162.3822 C.ar    1  UNL1        0.0341
      9 C         144.0375  138.6504  161.1449 C.ar    1  UNL1        0.1593
     10 F         144.4404  137.2095  161.2520 F       1  UNL1       -0.2025
     11 C         143.7525  139.2515  159.8005 C.ar    1  UNL1        0.1298
     12 N         143.3497  140.6925  159.6934 N.ar    1  UNL1       -0.2267
     13 C         140.9727  145.4408  158.9891 C.3     1  UNL1        0.1952
     14 O         142.2345  145.6346  158.2015 O.3     1  UNL1       -0.3467
     15 C         142.5035  144.7849  156.9949 C.3     1  UNL1        0.1740
     16 C         143.0473  143.3969  157.1612 C.3     1  UNL1        0.1692
     17 O         144.2587  143.1632  158.0143 O.3     1  UNL1       -0.3794
     18 H         145.0282  143.5913  157.6074 H       1  UNL1        0.2105
     19 O         140.6675  145.5471  161.5669 O.3     1  UNL1       -0.4517
     20 C         139.8701  144.8950  162.6574 C.ar    1  UNL1        0.2312
     21 N         138.3711  144.9167  162.6060 N.ar    1  UNL1       -0.1892
     22 C         137.5738  144.2646  163.6964 C.ar    1  UNL1        0.2029
     23 N         138.2755  143.5909  164.8383 N.ar    1  UNL1       -0.2046
     24 C         139.7744  143.5693  164.8897 C.ar    1  UNL1        0.1715
     25 C         140.5717  144.2213  163.7993 C.ar    1  UNL1        0.1098
     26 C         142.0265  144.0411  164.1175 C.ar    1  UNL1        0.1283
     27 N         142.1282  143.2776  165.4047 N.ar    1  UNL1       -0.1619
     28 N         140.7363  142.9860  165.8819 N.ar    1  UNL1       -0.2111
     29 C         140.3706  142.2418  167.1318 C.ar    1  UNL1        0.0949
     30 C         140.4720  142.9205  168.4656 C.ar    1  UNL1        0.0201
     31 C         140.1063  142.1763  169.7156 C.ar    1  UNL1        0.0016
     32 C         139.6391  140.7533  169.6318 C.ar    1  UNL1        0.0010
     33 C         139.5377  140.0747  168.2980 C.ar    1  UNL1        0.0129
     34 C         139.9035  140.8189  167.0480 C.ar    1  UNL1        0.0753
     35 CL        139.8020  140.1401  165.7142 Cl      1  UNL1       -0.0807
@<TRIPOS>BOND
     1     2     3    2
     2     3     4   am
     3     4     6    1
     4     6     7   ar
     5     7     8   ar
     6     8     9   ar
     7     9    10    1
     8     9    11   ar
     9    11    12   ar
    10     3     1    1
    11     1    13    1
    12    13    14    1
    13    14    15    1
    14    15    16    1
    15    16    17    1
    16     1    19    1
    17    19    20    1
    18    20    21   ar
    19    21    22   ar
    20    22    23   ar
    21    23    24   ar
    22    24    25   ar
    23    25    26   ar
    24    26    27   ar
    25    27    28   ar
    26    28    29    1
    27    29    30   ar
    28    30    31   ar
    29    31    32   ar
    30    32    33   ar
    31    33    34   ar
    32    34    35    1
    33    12     6   ar
    34    25    20   ar
    35    34    29   ar
    36    28    24   ar
    37     4     5    1
    38    17    18    1
@<TRIPOS>MOLECULE
*****
 35 38 0 0 0
SMALL
GASTEIGER

@<TRIPOS>ATOM
      1 C         141.0765  144.5990  159.9866 C.3     1  UNL1        0.2722
      2 O         142.3701  146.0468  158.2602 O.2     1  UNL1       -0.2707
      3 C         141.0932  145.4129  158.7267 C.2     1  UNL1        0.2701
      4 N         139.8329  145.5929  157.9334 N.am    1  UNL1       -0.2663
      5 H         138.9949  145.1769  158.2396 H       1  UNL1        0.1564
      6 C         139.8496  146.4068  156.6735 C.ar    1  UNL1        0.1344
      7 C         140.6682  145.9560  155.5002 C.ar    1  UNL1        0.0368
      8 C         140.6848  146.7699  154.2403 C.ar    1  UNL1        0.0341
      9 C         139.8829  148.0346  154.1538 C.ar    1  UNL1        0.1593
     10 F         139.8995  148.8485  152.8939 F       1  UNL1       -0.2025
     11 C         139.0643  148.4854  155.3271 C.ar    1  UNL1        0.1298
     12 N         139.0477  147.6714  156.5870 N.ar    1  UNL1       -0.2267
     13 C         141.1154  143.1014  159.9126 C.3     1  UNL1        0.1952
     14 O         139.8990  142.3008  160.2722 O.3     1  UNL1       -0.3467
     15 C         139.9951  141.2099  161.2974 C.3     1  UNL1        0.1740
     16 C         138.7974  140.8522  162.1265 C.3     1  UNL1        0.1692
     17 O         137.4294  141.2932  161.6974 O.3     1  UNL1       -0.3794
     18 H         137.3733  142.2606  161.7402 H       1  UNL1        0.2105
     19 O         141.0208  145.2828  161.3206 O.3     1  UNL1       -0.4517
     20 C         140.1702  144.7166  162.4187 C.ar    1  UNL1        0.2312
     21 N         138.6764  144.8312  162.3451 N.ar    1  UNL1       -0.1892
     22 C         137.8258  144.2650  163.4433 C.ar    1  UNL1        0.2029
     23 N         138.4690  143.5842  164.6149 N.ar    1  UNL1       -0.2046
     24 C         139.9628  143.4696  164.6885 C.ar    1  UNL1        0.1715
     25 C         140.8134  144.0358  163.5904 C.ar    1  UNL1        0.1098
     26 C         142.2497  143.7740  163.9348 C.ar    1  UNL1        0.1283
     27 N         142.2867  143.0461  165.2457 N.ar    1  UNL1       -0.1619
     28 N         140.8733  142.8579  165.7116 N.ar    1  UNL1       -0.2111
     29 C         140.4456  142.1775  166.9781 C.ar    1  UNL1        0.0949
     30 C         140.5140  142.9121  168.2841 C.ar    1  UNL1        0.0201
     31 C         140.0863  142.2317  169.5506 C.ar    1  UNL1        0.0016
     32 C         139.5901  140.8167  169.5112 C.ar    1  UNL1        0.0010
     33 C         139.5217  140.0821  168.2052 C.ar    1  UNL1        0.0129
     34 C         139.9495  140.7625  166.9386 C.ar    1  UNL1        0.0753
     35 CL        139.8810  140.0279  165.6327 Cl      1  UNL1       -0.0807
@<TRIPOS>BOND
     1     2     3    2
     2     3     4   am
     3     4     6    1
     4     6     7   ar
     5     7     8   ar
     6     8     9   ar
     7     9    10    1
     8     9    11   ar
     9    11    12   ar
    10     3     1    1
    11     1    13    1
    12    13    14    1
    13    14    15    1
    14    15    16    1
    15    16    17    1
    16     1    19    1
    17    19    20    1
    18    20    21   ar
    19    21    22   ar
    20    22    23   ar
    21    23    24   ar
    22    24    25   ar
    23    25    26   ar
    24    26    27   ar
    25    27    28   ar
    26    28    29    1
    27    29    30   ar
    28    30    31   ar
    29    31    32   ar
    30    32    33   ar
    31    33    34   ar
    32    34    35    1
    33    12     6   ar
    34    25    20   ar
    35    34    29   ar
    36    28    24   ar
    37     4     5    1
    38    17    18    1
@<TRIPOS>MOLECULE
*****
 35 38 0 0 0
SMALL
GASTEIGER

@<TRIPOS>ATOM
      1 C         142.2647  137.8584  161.2289 C.3     1  UNL1        0.2722
      2 O         142.7164  138.0104  158.6749 O.2     1  UNL1       -0.2707
      3 C         141.7794  138.1440  159.8386 C.2     1  UNL1        0.2701
      4 N         140.3571  138.5633  159.6120 N.am    1  UNL1       -0.2663
      5 H         139.7422  138.6511  160.3758 H       1  UNL1        0.1564
      6 C         139.8719  138.8489  158.2217 C.ar    1  UNL1        0.1344
      7 C         139.6457  140.2652  157.7824 C.ar    1  UNL1        0.0368
      8 C         139.1604  140.5508  156.3922 C.ar    1  UNL1        0.0341
      9 C         138.9013  139.4201  155.4411 C.ar    1  UNL1        0.1593
     10 F         138.4160  139.7057  154.0508 F       1  UNL1       -0.2025
     11 C         139.1274  138.0038  155.8804 C.ar    1  UNL1        0.1298
     12 N         139.6127  137.7183  157.2708 N.ar    1  UNL1       -0.2267
     13 C         143.6869  138.1545  161.6025 C.3     1  UNL1        0.1952
     14 O         144.2703  139.5074  161.3210 O.3     1  UNL1       -0.3467
     15 C         144.1659  140.5973  162.3463 C.3     1  UNL1        0.1740
     16 C         145.2421  140.7620  163.3781 C.3     1  UNL1        0.1692
     17 O         146.2974  141.8130  163.2000 O.3     1  UNL1       -0.3794
     18 H         146.8438  141.5950  162.4288 H       1  UNL1        0.2105
     19 O         141.3277  137.2768  162.2456 O.3     1  UNL1       -0.4517
     20 C         140.5452  138.1829  163.1495 C.ar    1  UNL1        0.2312
     21 N         139.1994  138.6887  162.7220 N.ar    1  UNL1       -0.1892
     22 C         138.4170  139.5948  163.6258 C.ar    1  UNL1        0.2029
     23 N         138.9806  139.9951  164.9570 N.ar    1  UNL1       -0.2046
     24 C         140.3264  139.4893  165.3845 C.ar    1  UNL1        0.1715
     25 C         141.1088  138.5832  164.4807 C.ar    1  UNL1        0.1098
     26 C         142.3991  138.2452  165.1671 C.ar    1  UNL1        0.1283
     27 N         142.4141  138.9425  166.4951 N.ar    1  UNL1       -0.1619
     28 N         141.1331  139.7113  166.6294 N.ar    1  UNL1       -0.2111
     29 C         140.7297  140.5543  167.8027 C.ar    1  UNL1        0.0949
     30 C         139.6413  140.0871  168.7230 C.ar    1  UNL1        0.0201
     31 C         139.2378  140.9300  169.8963 C.ar    1  UNL1        0.0016
     32 C         139.9229  142.2402  170.1494 C.ar    1  UNL1        0.0010
     33 C         141.0113  142.7074  169.2291 C.ar    1  UNL1        0.0129
     34 C         141.4147  141.8645  168.0558 C.ar    1  UNL1        0.0753
     35 CL        142.5032  142.3318  167.1356 Cl      1  UNL1       -0.0807
@<TRIPOS>BOND
     1     2     3    2
     2     3     4   am
     3     4     6    1
     4     6     7   ar
     5     7     8   ar
     6     8     9   ar
     7     9    10    1
     8     9    11   ar
     9    11    12   ar
    10     3     1    1
    11     1    13    1
    12    13    14    1
    13    14    15    1
    14    15    16    1
    15    16    17    1
    16     1    19    1
    17    19    20    1
    18    20    21   ar
    19    21    22   ar
    20    22    23   ar
    21    23    24   ar
    22    24    25   ar
    23    25    26   ar
    24    26    27   ar
    25    27    28   ar
    26    28    29    1
    27    29    30   ar
    28    30    31   ar
    29    31    32   ar
    30    32    33   ar
    31    33    34   ar
    32    34    35    1
    33    12     6   ar
    34    25    20   ar
    35    34    29   ar
    36    28    24   ar
    37     4     5    1
    38    17    18    1
@<TRIPOS>MOLECULE
*****
 35 38 0 0 0
SMALL
GASTEIGER

@<TRIPOS>ATOM
      1 C         139.8927  138.7901  160.4226 C.3     1  UNL1        0.2722
      2 O         138.2182  140.7598  160.6810 O.2     1  UNL1       -0.2707
      3 C         139.6270  140.2449  160.6740 C.2     1  UNL1        0.2701
      4 N         140.7703  141.1847  160.9184 N.am    1  UNL1       -0.2663
      5 H         141.6950  140.8467  160.9138 H       1  UNL1        0.1564
      6 C         140.5048  142.6394  161.1697 C.ar    1  UNL1        0.1344
      7 C         140.6902  143.6374  160.0654 C.ar    1  UNL1        0.0368
      8 C         140.4246  145.0922  160.3167 C.ar    1  UNL1        0.0341
      9 C         139.9736  145.5489  161.6725 C.ar    1  UNL1        0.1593
     10 F         139.7081  147.0037  161.9239 F       1  UNL1       -0.2025
     11 C         139.7882  144.5509  162.7769 C.ar    1  UNL1        0.1298
     12 N         140.0538  143.0961  162.5255 N.ar    1  UNL1       -0.2267
     13 C         140.0160  138.2822  159.0167 C.3     1  UNL1        0.1952
     14 O         141.3704  137.9981  158.4380 O.3     1  UNL1       -0.3467
     15 C         142.5419  138.8559  158.8147 C.3     1  UNL1        0.1740
     16 C         143.4099  138.4718  159.9763 C.3     1  UNL1        0.1692
     17 O         143.2709  137.1148  160.6000 O.3     1  UNL1       -0.3794
     18 H         142.3985  137.0384  161.0170 H       1  UNL1        0.2105
     19 O         140.0349  137.8433  161.5773 O.3     1  UNL1       -0.4517
     20 C         140.6906  138.3012  162.8464 C.ar    1  UNL1        0.2312
     21 N         142.1489  138.0351  163.0754 N.ar    1  UNL1       -0.1892
     22 C         142.8045  138.4931  164.3444 C.ar    1  UNL1        0.2029
     23 N         142.0018  139.2171  165.3844 N.ar    1  UNL1       -0.2046
     24 C         140.5435  139.4832  165.1553 C.ar    1  UNL1        0.1715
     25 C         139.8879  139.0253  163.8863 C.ar    1  UNL1        0.1098
     26 C         138.4437  139.4274  163.9393 C.ar    1  UNL1        0.1283
     27 N         138.2068  140.1339  165.2411 N.ar    1  UNL1       -0.1619
     28 N         139.5046  140.1684  165.9926 N.ar    1  UNL1       -0.2111
     29 C         139.7247  140.7805  167.3442 C.ar    1  UNL1        0.0949
     30 C         139.3361  140.0267  168.5814 C.ar    1  UNL1        0.0201
     31 C         139.5563  140.6389  169.9329 C.ar    1  UNL1        0.0016
     32 C         140.1651  142.0050  170.0474 C.ar    1  UNL1        0.0010
     33 C         140.5537  142.7588  168.8102 C.ar    1  UNL1        0.0129
     34 C         140.3336  142.1466  167.4586 C.ar    1  UNL1        0.0753
     35 CL        140.7222  142.9006  166.2215 Cl      1  UNL1       -0.0807
@<TRIPOS>BOND
     1     2     3    2
     2     3     4   am
     3     4     6    1
     4     6     7   ar
     5     7     8   ar
     6     8     9   ar
     7     9    10    1
     8     9    11   ar
     9    11    12   ar
    10     3     1    1
    11     1    13    1
    12    13    14    1
    13    14    15    1
    14    15    16    1
    15    16    17    1
    16     1    19    1
    17    19    20    1
    18    20    21   ar
    19    21    22   ar
    20    22    23   ar
    21    23    24   ar
    22    24    25   ar
    23    25    26   ar
    24    26    27   ar
    25    27    28   ar
    26    28    29    1
    27    29    30   ar
    28    30    31   ar
    29    31    32   ar
    30    32    33   ar
    31    33    34   ar
    32    34    35    1
    33    12     6   ar
    34    25    20   ar
    35    34    29   ar
    36    28    24   ar
    37     4     5    1
    38    17    18    1
@<TRIPOS>MOLECULE
*****
 35 38 0 0 0
SMALL
GASTEIGER

@<TRIPOS>ATOM
      1 C         139.5087  138.9526  159.9482 C.3     1  UNL1        0.2722
      2 O         138.0081  141.0723  159.8769 O.2     1  UNL1       -0.2707
      3 C         139.3195  140.4194  160.1990 C.2     1  UNL1        0.2701
      4 N         140.4418  141.2332  160.7719 N.am    1  UNL1       -0.2663
      5 H         141.3026  140.8046  160.9833 H       1  UNL1        0.1564
      6 C         140.2527  142.6999  161.0227 C.ar    1  UNL1        0.1344
      7 C         139.6377  143.1678  162.3083 C.ar    1  UNL1        0.0368
      8 C         139.4486  144.6345  162.5591 C.ar    1  UNL1        0.0341
      9 C         139.8745  145.6334  161.5242 C.ar    1  UNL1        0.1593
     10 F         139.6854  147.1001  161.7749 F       1  UNL1       -0.2025
     11 C         140.4895  145.1655  160.2386 C.ar    1  UNL1        0.1298
     12 N         140.6786  143.6987  159.9878 N.ar    1  UNL1       -0.2267
     13 C         140.0272  138.4790  158.6228 C.3     1  UNL1        0.1952
     14 O         139.9407  139.3725  157.4210 O.3     1  UNL1       -0.3467
     15 C         140.0552  138.7899  156.0435 C.3     1  UNL1        0.1740
     16 C         139.9657  137.3055  155.8472 C.3     1  UNL1        0.1692
     17 O         138.6533  136.6026  156.0297 O.3     1  UNL1       -0.3794
     18 H         138.3823  136.6600  156.9593 H       1  UNL1        0.2105
     19 O         139.1794  137.9594  161.0230 O.3     1  UNL1       -0.4517
     20 C         139.8266  138.0715  162.3716 C.ar    1  UNL1        0.2312
     21 N         141.0035  137.2064  162.7129 N.ar    1  UNL1       -0.1892
     22 C         141.6507  137.3185  164.0615 C.ar    1  UNL1        0.2029
     23 N         141.1209  138.2957  165.0687 N.ar    1  UNL1       -0.2046
     24 C         139.9440  139.1608  164.7274 C.ar    1  UNL1        0.1715
     25 C         139.2969  139.0486  163.3788 C.ar    1  UNL1        0.1098
     26 C         138.1597  140.0256  163.3277 C.ar    1  UNL1        0.1283
     27 N         138.1042  140.7415  164.6446 N.ar    1  UNL1       -0.1619
     28 N         139.2069  140.2070  165.5097 N.ar    1  UNL1       -0.2111
     29 C         139.5179  140.6422  166.9110 C.ar    1  UNL1        0.0949
     30 C         139.0753  139.8030  168.0728 C.ar    1  UNL1        0.0201
     31 C         139.3863  140.2383  169.4741 C.ar    1  UNL1        0.0016
     32 C         140.1400  141.5129  169.7138 C.ar    1  UNL1        0.0010
     33 C         140.5826  142.3521  168.5520 C.ar    1  UNL1        0.0129
     34 C         140.2716  141.9168  167.1507 C.ar    1  UNL1        0.0753
     35 CL        140.7142  142.7562  165.9890 Cl      1  UNL1       -0.0807
@<TRIPOS>BOND
     1     2     3    2
     2     3     4   am
     3     4     6    1
     4     6     7   ar
     5     7     8   ar
     6     8     9   ar
     7     9    10    1
     8     9    11   ar
     9    11    12   ar
    10     3     1    1
    11     1    13    1
    12    13    14    1
    13    14    15    1
    14    15    16    1
    15    16    17    1
    16     1    19    1
    17    19    20    1
    18    20    21   ar
    19    21    22   ar
    20    22    23   ar
    21    23    24   ar
    22    24    25   ar
    23    25    26   ar
    24    26    27   ar
    25    27    28   ar
    26    28    29    1
    27    29    30   ar
    28    30    31   ar
    29    31    32   ar
    30    32    33   ar
    31    33    34   ar
    32    34    35    1
    33    12     6   ar
    34    25    20   ar
    35    34    29   ar
    36    28    24   ar
    37     4     5    1
    38    17    18    1
@<TRIPOS>MOLECULE
*****
 35 38 0 0 0
SMALL
GASTEIGER

@<TRIPOS>ATOM
      1 C         137.9428  140.7078  161.3776 C.3     1  UNL1        0.2722
      2 O         138.5147  142.5542  159.6415 O.2     1  UNL1       -0.2707
      3 C         138.0660  141.1569  159.9517 C.2     1  UNL1        0.2701
      4 N         137.7404  140.2086  158.8360 N.am    1  UNL1       -0.2663
      5 H         137.4459  139.2916  159.0396 H       1  UNL1        0.1564
      6 C         137.8635  140.6577  157.4101 C.ar    1  UNL1        0.1344
      7 C         136.6794  141.2506  156.7056 C.ar    1  UNL1        0.0368
      8 C         136.8025  141.6996  155.2797 C.ar    1  UNL1        0.0341
      9 C         138.1098  141.5557  154.5582 C.ar    1  UNL1        0.1593
     10 F         138.2329  142.0047  153.1324 F       1  UNL1       -0.2025
     11 C         139.2939  140.9627  155.2628 C.ar    1  UNL1        0.1298
     12 N         139.1707  140.5137  156.6887 N.ar    1  UNL1       -0.2267
     13 C         138.4647  139.3628  161.7881 C.3     1  UNL1        0.1952
     14 O         139.2070  138.5128  160.7999 O.3     1  UNL1       -0.3467
     15 C         140.6932  138.6554  160.6552 C.3     1  UNL1        0.1740
     16 C         141.6103  137.9655  161.6211 C.3     1  UNL1        0.1692
     17 O         141.0742  136.9075  162.5392 O.3     1  UNL1       -0.3794
     18 H         140.4509  137.3082  163.1652 H       1  UNL1        0.2105
     19 O         137.2978  141.6039  162.3930 O.3     1  UNL1       -0.4517
     20 C         138.1480  142.4393  163.3037 C.ar    1  UNL1        0.2312
     21 N         138.4296  143.8723  162.9616 N.ar    1  UNL1       -0.1892
     22 C         139.2797  144.7077  163.8722 C.ar    1  UNL1        0.2029
     23 N         139.8482  144.1101  165.1251 N.ar    1  UNL1       -0.2046
     24 C         139.5666  142.6771  165.4673 C.ar    1  UNL1        0.1715
     25 C         138.7164  141.8417  164.5566 C.ar    1  UNL1        0.1098
     26 C         138.6112  140.4685  165.1510 C.ar    1  UNL1        0.1283
     27 N         139.3963  140.4552  166.4290 N.ar    1  UNL1       -0.1619
     28 N         139.9867  141.8202  166.6245 N.ar    1  UNL1       -0.2111
     29 C         140.8464  142.2525  167.7752 C.ar    1  UNL1        0.0949
     30 C         140.2594  143.0781  168.8814 C.ar    1  UNL1        0.0201
     31 C         141.1191  143.5104  170.0320 C.ar    1  UNL1        0.0016
     32 C         142.5659  143.1170  170.0766 C.ar    1  UNL1        0.0010
     33 C         143.1529  142.2914  168.9704 C.ar    1  UNL1        0.0129
     34 C         142.2933  141.8591  167.8197 C.ar    1  UNL1        0.0753
     35 CL        142.8804  141.0335  166.7136 Cl      1  UNL1       -0.0807
@<TRIPOS>BOND
     1     2     3    2
     2     3     4   am
     3     4     6    1
     4     6     7   ar
     5     7     8   ar
     6     8     9   ar
     7     9    10    1
     8     9    11   ar
     9    11    12   ar
    10     3     1    1
    11     1    13    1
    12    13    14    1
    13    14    15    1
    14    15    16    1
    15    16    17    1
    16     1    19    1
    17    19    20    1
    18    20    21   ar
    19    21    22   ar
    20    22    23   ar
    21    23    24   ar
    22    24    25   ar
    23    25    26   ar
    24    26    27   ar
    25    27    28   ar
    26    28    29    1
    27    29    30   ar
    28    30    31   ar
    29    31    32   ar
    30    32    33   ar
    31    33    34   ar
    32    34    35    1
    33    12     6   ar
    34    25    20   ar
    35    34    29   ar
    36    28    24   ar
    37     4     5    1
    38    17    18    1
@<TRIPOS>MOLECULE
*****
 35 38 0 0 0
SMALL
GASTEIGER

@<TRIPOS>ATOM
      1 C         143.4110  141.5675  161.2709 C.3     1  UNL1        0.2722
      2 O         141.7244  141.6215  159.2955 O.2     1  UNL1       -0.2707
      3 C         142.6616  142.3361  160.2232 C.2     1  UNL1        0.2701
      4 N         142.8495  143.8195  160.1033 N.am    1  UNL1       -0.2663
      5 H         143.4647  144.2885  160.7123 H       1  UNL1        0.1564
      6 C         142.1002  144.5881  159.0557 C.ar    1  UNL1        0.1344
      7 C         140.7071  145.0706  159.3323 C.ar    1  UNL1        0.0368
      8 C         139.9578  145.8393  158.2847 C.ar    1  UNL1        0.0341
      9 C         140.6015  146.1255  156.9603 C.ar    1  UNL1        0.1593
     10 F         139.8522  146.8942  155.9127 F       1  UNL1       -0.2025
     11 C         141.9946  145.6431  156.6837 C.ar    1  UNL1        0.1298
     12 N         142.7439  144.8743  157.7315 N.ar    1  UNL1       -0.2267
     13 C         144.7454  142.0575  161.7498 C.3     1  UNL1        0.1952
     14 O         144.8680  143.4217  162.3612 O.3     1  UNL1       -0.3467
     15 C         144.0340  143.7871  163.5533 C.3     1  UNL1        0.1740
     16 C         143.3101  145.1004  163.5880 C.3     1  UNL1        0.1692
     17 O         142.1498  145.3417  162.6686 O.3     1  UNL1       -0.3794
     18 H         142.4617  145.3526  161.7502 H       1  UNL1        0.2105
     19 O         142.8260  140.3088  161.8397 O.3     1  UNL1       -0.4517
     20 C         142.7917  140.1021  163.3250 C.ar    1  UNL1        0.2312
     21 N         143.7146  139.1081  163.9655 N.ar    1  UNL1       -0.1892
     22 C         143.6802  138.9015  165.4507 C.ar    1  UNL1        0.2029
     23 N         142.7229  139.6889  166.2955 N.ar    1  UNL1       -0.2046
     24 C         141.8001  140.6829  165.6551 C.ar    1  UNL1        0.1715
     25 C         141.8344  140.8895  164.1698 C.ar    1  UNL1        0.1098
     26 C         140.8126  141.9315  163.8230 C.ar    1  UNL1        0.1283
     27 N         140.1468  142.3689  165.0939 N.ar    1  UNL1       -0.1619
     28 N         140.7571  141.5971  166.2262 N.ar    1  UNL1       -0.2111
     29 C         140.3889  141.7184  167.6753 C.ar    1  UNL1        0.0949
     30 C         140.8175  142.9230  168.4597 C.ar    1  UNL1        0.0201
     31 C         140.4494  143.0443  169.9088 C.ar    1  UNL1        0.0016
     32 C         139.6527  141.9610  170.5734 C.ar    1  UNL1        0.0010
     33 C         139.2242  140.7564  169.7890 C.ar    1  UNL1        0.0129
     34 C         139.5923  140.6351  168.3399 C.ar    1  UNL1        0.0753
     35 CL        139.1637  139.4305  167.5556 Cl      1  UNL1       -0.0807
@<TRIPOS>BOND
     1     2     3    2
     2     3     4   am
     3     4     6    1
     4     6     7   ar
     5     7     8   ar
     6     8     9   ar
     7     9    10    1
     8     9    11   ar
     9    11    12   ar
    10     3     1    1
    11     1    13    1
    12    13    14    1
    13    14    15    1
    14    15    16    1
    15    16    17    1
    16     1    19    1
    17    19    20    1
    18    20    21   ar
    19    21    22   ar
    20    22    23   ar
    21    23    24   ar
    22    24    25   ar
    23    25    26   ar
    24    26    27   ar
    25    27    28   ar
    26    28    29    1
    27    29    30   ar
    28    30    31   ar
    29    31    32   ar
    30    32    33   ar
    31    33    34   ar
    32    34    35    1
    33    12     6   ar
    34    25    20   ar
    35    34    29   ar
    36    28    24   ar
    37     4     5    1
    38    17    18    1
@<TRIPOS>MOLECULE
*****
 35 38 0 0 0
SMALL
GASTEIGER

@<TRIPOS>ATOM
      1 C         141.7705  144.4366  160.6639 C.3     1  UNL1        0.2722
      2 O         142.0632  144.1667  158.0965 O.2     1  UNL1       -0.2707
      3 C         142.4070  143.7456  159.4945 C.2     1  UNL1        0.2701
      4 N         143.3872  142.6334  159.7232 N.am    1  UNL1       -0.2663
      5 H         143.6128  142.3571  160.6408 H       1  UNL1        0.1564
      6 C         144.0237  141.9424  158.5539 C.ar    1  UNL1        0.1344
      7 C         143.3888  140.7142  157.9722 C.ar    1  UNL1        0.0368
      8 C         144.0253  140.0231  156.8029 C.ar    1  UNL1        0.0341
      9 C         145.2967  140.5603  156.2153 C.ar    1  UNL1        0.1593
     10 F         145.9331  139.8693  155.0460 F       1  UNL1       -0.2025
     11 C         145.9315  141.7885  156.7970 C.ar    1  UNL1        0.1298
     12 N         145.2949  142.4796  157.9664 N.ar    1  UNL1       -0.2267
     13 C         140.3084  144.7702  160.6331 C.3     1  UNL1        0.1952
     14 O         139.3545  143.8918  159.8791 O.3     1  UNL1       -0.3467
     15 C         138.7341  142.7048  160.5546 C.3     1  UNL1        0.1740
     16 C         138.2222  142.8241  161.9595 C.3     1  UNL1        0.1692
     17 O         137.4268  144.0283  162.3682 O.3     1  UNL1       -0.3794
     18 H         137.9919  144.8160  162.3339 H       1  UNL1        0.2105
     19 O         142.5962  144.7941  161.8641 O.3     1  UNL1       -0.4517
     20 C         142.7168  143.8289  163.0060 C.ar    1  UNL1        0.2312
     21 N         143.9000  142.9108  163.0902 N.ar    1  UNL1       -0.1892
     22 C         144.0205  141.9456  164.2321 C.ar    1  UNL1        0.2029
     23 N         142.9579  141.8986  165.2897 N.ar    1  UNL1       -0.2046
     24 C         141.7748  142.8167  165.2055 C.ar    1  UNL1        0.1715
     25 C         141.6542  143.7819  164.0637 C.ar    1  UNL1        0.1098
     26 C         140.3838  144.5585  164.2453 C.ar    1  UNL1        0.1283
     27 N         139.7192  144.0733  165.4995 N.ar    1  UNL1       -0.1619
     28 N         140.5789  142.9968  166.0929 N.ar    1  UNL1       -0.2111
     29 C         140.2929  142.2343  167.3526 C.ar    1  UNL1        0.0949
     30 C         140.5094  142.8830  168.6876 C.ar    1  UNL1        0.0201
     31 C         140.2234  142.1204  169.9472 C.ar    1  UNL1        0.0016
     32 C         139.7209  140.7091  169.8719 C.ar    1  UNL1        0.0010
     33 C         139.5045  140.0604  168.5369 C.ar    1  UNL1        0.0129
     34 C         139.7905  140.8229  167.2772 C.ar    1  UNL1        0.0753
     35 CL        139.5740  140.1741  165.9423 Cl      1  UNL1       -0.0807
@<TRIPOS>BOND
     1     2     3    2
     2     3     4   am
     3     4     6    1
     4     6     7   ar
     5     7     8   ar
     6     8     9   ar
     7     9    10    1
     8     9    11   ar
     9    11    12   ar
    10     3     1    1
    11     1    13    1
    12    13    14    1
    13    14    15    1
    14    15    16    1
    15    16    17    1
    16     1    19    1
    17    19    20    1
    18    20    21   ar
    19    21    22   ar
    20    22    23   ar
    21    23    24   ar
    22    24    25   ar
    23    25    26   ar
    24    26    27   ar
    25    27    28   ar
    26    28    29    1
    27    29    30   ar
    28    30    31   ar
    29    31    32   ar
    30    32    33   ar
    31    33    34   ar
    32    34    35    1
    33    12     6   ar
    34    25    20   ar
    35    34    29   ar
    36    28    24   ar
    37     4     5    1
    38    17    18    1
