@<TRIPOS>MOLECULE
*****
 42 47 0 0 0
SMALL
GASTEIGER

@<TRIPOS>ATOM
      1 C         144.1300  139.8567  164.3521 C.3     1  UNL1        0.0570
      2 C         143.6467  139.0468  165.5185 C.3     1  UNL1        0.0331
      3 C         143.0574  139.7329  166.7153 C.3     1  UNL1        0.0735
      4 N         142.9514  141.2288  166.7455 N.3     1  UNL1       -0.2710
      5 C         143.4347  142.0387  165.5791 C.3     1  UNL1        0.0735
      6 C         144.0239  141.3526  164.3824 C.3     1  UNL1        0.0331
      7 N         144.7193  139.1707  163.1555 N.3     1  UNL1       -0.2934
      8 H         145.0219  139.9044  162.5148 H       1  UNL1        0.1236
      9 C         143.8876  138.2127  162.3550 C.3     1  UNL1        0.1152
     10 O         138.4211  142.8473  159.2911 O.2     1  UNL1       -0.2707
     11 C         138.7991  141.6061  160.0439 C.2     1  UNL1        0.2718
     12 C         137.7329  140.6687  160.5281 C.3     1  UNL1        0.2898
     13 O         138.1109  139.4275  161.2809 O.3     1  UNL1       -0.4628
     14 C         139.5551  139.1238  161.5494 C.ar    1  UNL1        0.1708
     15 C         139.9331  137.8827  162.3022 C.ar    1  UNL1        0.0411
     16 C         141.3772  137.5789  162.5707 C.ar    1  UNL1        0.0193
     17 C         142.4435  138.5164  162.0865 C.ar    1  UNL1        0.0765
     18 N         142.0655  139.7575  161.3337 N.ar    1  UNL1       -0.2304
     19 C         140.6212  140.0612  161.0652 C.ar    1  UNL1        0.1682
     20 N         140.2432  141.3024  160.3124 N.am    1  UNL1       -0.2639
     21 H         140.9430  141.9177  159.9946 H       1  UNL1        0.1565
     22 C         142.3621  141.9149  167.9422 C.3     1  UNL1        0.0970
     23 C         140.8916  142.2065  167.9909 C.3     1  UNL1        0.1264
     24 N         139.9333  141.3639  167.2023 N.ar    1  UNL1       -0.2926
     25 C         139.5699  139.9908  167.6846 C.ar    1  UNL1        0.2611
     26 O         140.1648  139.4603  168.9554 O.2     1  UNL1       -0.2670
     27 C         138.6117  139.1481  166.8961 C.ar    1  UNL1        0.0623
     28 C         138.0168  139.6786  165.6254 C.ar    1  UNL1        0.0255
     29 C         138.3801  141.0517  165.1431 C.ar    1  UNL1        0.0975
     30 N         137.7853  141.5821  163.8724 N.ar    1  UNL1       -0.2392
     31 C         138.1486  142.9552  163.3902 C.ar    1  UNL1        0.1357
     32 C         139.1068  143.7979  164.1786 C.ar    1  UNL1        0.1597
     33 C         139.7018  143.2674  165.4494 C.ar    1  UNL1        0.0573
     34 C         139.3384  141.8943  165.9316 C.ar    1  UNL1        0.0832
     35 O         139.4702  145.1710  163.6964 O.3     1  UNL1       -0.4674
     36 C         140.2085  145.3402  162.4016 C.3     1  UNL1        0.2509
     37 C         141.5910  144.7788  162.2477 C.ar    1  UNL1        0.1026
     38 C         142.6794  145.1963  163.1915 C.ar    1  UNL1        0.0185
     39 C         144.0618  144.6349  163.0376 C.ar    1  UNL1        0.0029
     40 C         144.3559  143.6560  161.9398 C.ar    1  UNL1        0.0207
     41 C         143.2674  143.2384  160.9959 C.ar    1  UNL1        0.0986
     42 N         141.8850  143.7998  161.1498 N.ar    1  UNL1       -0.2445
@<TRIPOS>BOND
     1    10    11    2
     2    11    12    1
     3    12    13    1
     4    13    14    1
     5    14    15   ar
     6    15    16   ar
     7    16    17   ar
     8    17     9    1
     9     9     7    1
    10     7     1    1
    11     1     2    1
    12     2     3    1
    13     3     4    1
    14     4    22    1
    15    22    23    1
    16    23    24    1
    17    24    25   ar
    18    25    26    2
    19    25    27   ar
    20    27    28   ar
    21    28    29   ar
    22    29    30   ar
    23    30    31   ar
    24    31    32   ar
    25    32    35    1
    26    35    36    1
    27    36    37    1
    28    37    38   ar
    29    38    39   ar
    30    39    40   ar
    31    40    41   ar
    32    41    42   ar
    33    32    33   ar
    34    33    34   ar
    35     4     5    1
    36     5     6    1
    37    17    18   ar
    38    18    19   ar
    39    19    20    1
    40    20    11   am
    41    19    14   ar
    42     6     1    1
    43    34    24   ar
    44    34    29   ar
    45    42    37   ar
    46     7     8    1
    47    20    21    1
@<TRIPOS>MOLECULE
*****
 42 47 0 0 0
SMALL
GASTEIGER

@<TRIPOS>ATOM
      1 C         137.9111  139.9369  162.5644 C.3     1  UNL1        0.0570
      2 C         137.7760  141.1367  161.6744 C.3     1  UNL1        0.0331
      3 C         137.8126  142.5157  162.2638 C.3     1  UNL1        0.0735
      4 N         137.9843  142.6947  163.7431 N.3     1  UNL1       -0.2710
      5 C         138.1194  141.4948  164.6331 C.3     1  UNL1        0.0735
      6 C         138.0828  140.1159  164.0438 C.3     1  UNL1        0.0331
      7 N         137.8745  138.5581  161.9751 N.3     1  UNL1       -0.2934
      8 H         137.6397  137.9193  162.7348 H       1  UNL1        0.1236
      9 C         139.0914  137.9986  161.2994 C.3     1  UNL1        0.1152
     10 O         143.9061  138.0943  167.4279 O.2     1  UNL1       -0.2707
     11 C         143.6622  138.3124  165.9641 C.2     1  UNL1        0.2718
     12 C         144.7792  138.7805  165.0792 C.3     1  UNL1        0.2898
     13 O         144.5353  138.9987  163.6153 O.3     1  UNL1       -0.4628
     14 C         143.1743  138.7487  163.0363 C.ar    1  UNL1        0.1708
     15 C         142.9304  138.9668  161.5725 C.ar    1  UNL1        0.0411
     16 C         141.5694  138.7168  160.9935 C.ar    1  UNL1        0.0193
     17 C         140.4523  138.2486  161.8784 C.ar    1  UNL1        0.0765
     18 N         140.6962  138.0305  163.3423 N.ar    1  UNL1       -0.2304
     19 C         142.0573  138.2805  163.9212 C.ar    1  UNL1        0.1682
     20 N         142.3012  138.0624  165.3851 N.am    1  UNL1       -0.2639
     21 H         141.5681  137.7551  165.9659 H       1  UNL1        0.1565
     22 C         138.0209  144.0736  164.3324 C.3     1  UNL1        0.0970
     23 C         139.3040  144.8503  164.3441 C.3     1  UNL1        0.1264
     24 N         140.2935  144.6809  163.2296 N.ar    1  UNL1       -0.2926
     25 C         140.0457  145.3321  161.9012 C.ar    1  UNL1        0.2611
     26 O         138.8084  146.1528  161.6874 O.2     1  UNL1       -0.2670
     27 C         141.0351  145.1627  160.7867 C.ar    1  UNL1        0.0623
     28 C         142.2725  144.3421  161.0004 C.ar    1  UNL1        0.0255
     29 C         142.5203  143.6908  162.3288 C.ar    1  UNL1        0.0975
     30 N         143.7575  142.8702  162.5426 N.ar    1  UNL1       -0.2392
     31 C         144.0053  142.2190  163.8709 C.ar    1  UNL1        0.1357
     32 C         143.0159  142.3884  164.9855 C.ar    1  UNL1        0.1597
     33 C         141.7786  143.2091  164.7717 C.ar    1  UNL1        0.0573
     34 C         141.5308  143.8603  163.4434 C.ar    1  UNL1        0.0832
     35 O         143.2637  141.7372  166.3138 O.3     1  UNL1       -0.4674
     36 C         142.7511  142.3770  167.5700 C.3     1  UNL1        0.2509
     37 C         141.5600  141.7981  168.2744 C.ar    1  UNL1        0.1026
     38 C         140.8596  140.6009  167.7032 C.ar    1  UNL1        0.0185
     39 C         139.6685  140.0220  168.4076 C.ar    1  UNL1        0.0029
     40 C         139.1777  140.6403  169.6830 C.ar    1  UNL1        0.0207
     41 C         139.8781  141.8375  170.2542 C.ar    1  UNL1        0.0986
     42 N         141.0692  142.4164  169.5499 N.ar    1  UNL1       -0.2445
@<TRIPOS>BOND
     1    10    11    2
     2    11    12    1
     3    12    13    1
     4    13    14    1
     5    14    15   ar
     6    15    16   ar
     7    16    17   ar
     8    17     9    1
     9     9     7    1
    10     7     1    1
    11     1     2    1
    12     2     3    1
    13     3     4    1
    14     4    22    1
    15    22    23    1
    16    23    24    1
    17    24    25   ar
    18    25    26    2
    19    25    27   ar
    20    27    28   ar
    21    28    29   ar
    22    29    30   ar
    23    30    31   ar
    24    31    32   ar
    25    32    35    1
    26    35    36    1
    27    36    37    1
    28    37    38   ar
    29    38    39   ar
    30    39    40   ar
    31    40    41   ar
    32    41    42   ar
    33    32    33   ar
    34    33    34   ar
    35     4     5    1
    36     5     6    1
    37    17    18   ar
    38    18    19   ar
    39    19    20    1
    40    20    11   am
    41    19    14   ar
    42     6     1    1
    43    34    24   ar
    44    34    29   ar
    45    42    37   ar
    46     7     8    1
    47    20    21    1
@<TRIPOS>MOLECULE
*****
 42 47 0 0 0
SMALL
GASTEIGER

@<TRIPOS>ATOM
      1 C         145.0898  141.3997  163.5210 C.3     1  UNL1        0.0570
      2 C         144.7723  141.6691  162.0800 C.3     1  UNL1        0.0331
      3 C         144.0810  140.6235  161.2561 C.3     1  UNL1        0.0735
      4 N         143.7073  139.3084  161.8732 N.3     1  UNL1       -0.2710
      5 C         144.0249  139.0389  163.3143 C.3     1  UNL1        0.0735
      6 C         144.7161  140.0846  164.1381 C.3     1  UNL1        0.0331
      7 N         145.7810  142.4453  164.3449 N.3     1  UNL1       -0.2934
      8 H         146.3754  141.9507  165.0100 H       1  UNL1        0.1236
      9 C         144.9737  143.4317  165.1359 C.3     1  UNL1        0.1152
     10 O         139.1841  146.6566  161.0334 O.2     1  UNL1       -0.2707
     11 C         139.6478  145.7414  162.1276 C.2     1  UNL1        0.2718
     12 C         138.6452  144.9859  162.9486 C.3     1  UNL1        0.2898
     13 O         139.1088  144.0706  164.0428 O.3     1  UNL1       -0.4628
     14 C         140.5750  143.9109  164.3161 C.ar    1  UNL1        0.1708
     15 C         141.0387  142.9956  165.4103 C.ar    1  UNL1        0.0411
     16 C         142.5049  142.8359  165.6836 C.ar    1  UNL1        0.0193
     17 C         143.5075  143.5914  164.8626 C.ar    1  UNL1        0.0765
     18 N         143.0439  144.5067  163.7683 N.ar    1  UNL1       -0.2304
     19 C         141.5776  144.6664  163.4951 C.ar    1  UNL1        0.1682
     20 N         141.1140  145.5816  162.4009 N.am    1  UNL1       -0.2639
     21 H         141.7720  146.0775  161.8620 H       1  UNL1        0.1565
     22 C         143.0161  138.2627  161.0493 C.3     1  UNL1        0.0970
     23 C         141.6856  137.7239  161.4841 C.3     1  UNL1        0.1264
     24 N         140.4531  138.5678  161.3460 N.ar    1  UNL1       -0.2926
     25 C         139.8605  138.8135  159.9901 C.ar    1  UNL1        0.2611
     26 O         140.5003  138.2152  158.7723 O.2     1  UNL1       -0.2670
     27 C         138.6282  139.6573  159.8519 C.ar    1  UNL1        0.0623
     28 C         137.9884  140.2556  161.0696 C.ar    1  UNL1        0.0255
     29 C         138.5810  140.0099  162.4255 C.ar    1  UNL1        0.0975
     30 N         137.9412  140.6081  163.6432 N.ar    1  UNL1       -0.2392
     31 C         138.5339  140.3625  164.9991 C.ar    1  UNL1        0.1357
     32 C         139.7662  139.5186  165.1373 C.ar    1  UNL1        0.1597
     33 C         140.4060  138.9203  163.9196 C.ar    1  UNL1        0.0573
     34 C         139.8134  139.1660  162.5637 C.ar    1  UNL1        0.0832
     35 O         140.3588  139.2729  166.4932 O.3     1  UNL1       -0.4674
     36 C         139.8621  140.0445  167.6798 C.3     1  UNL1        0.2509
     37 C         140.7929  140.9532  168.4267 C.ar    1  UNL1        0.1026
     38 C         142.2195  140.5469  168.6494 C.ar    1  UNL1        0.0185
     39 C         143.1503  141.4555  169.3963 C.ar    1  UNL1        0.0029
     40 C         142.6545  142.7706  169.9205 C.ar    1  UNL1        0.0207
     41 C         141.2278  143.1769  169.6979 C.ar    1  UNL1        0.0986
     42 N         140.2970  142.2682  168.9510 N.ar    1  UNL1       -0.2445
@<TRIPOS>BOND
     1    10    11    2
     2    11    12    1
     3    12    13    1
     4    13    14    1
     5    14    15   ar
     6    15    16   ar
     7    16    17   ar
     8    17     9    1
     9     9     7    1
    10     7     1    1
    11     1     2    1
    12     2     3    1
    13     3     4    1
    14     4    22    1
    15    22    23    1
    16    23    24    1
    17    24    25   ar
    18    25    26    2
    19    25    27   ar
    20    27    28   ar
    21    28    29   ar
    22    29    30   ar
    23    30    31   ar
    24    31    32   ar
    25    32    35    1
    26    35    36    1
    27    36    37    1
    28    37    38   ar
    29    38    39   ar
    30    39    40   ar
    31    40    41   ar
    32    41    42   ar
    33    32    33   ar
    34    33    34   ar
    35     4     5    1
    36     5     6    1
    37    17    18   ar
    38    18    19   ar
    39    19    20    1
    40    20    11   am
    41    19    14   ar
    42     6     1    1
    43    34    24   ar
    44    34    29   ar
    45    42    37   ar
    46     7     8    1
    47    20    21    1
@<TRIPOS>MOLECULE
*****
 42 47 0 0 0
SMALL
GASTEIGER

@<TRIPOS>ATOM
      1 C         142.1589  143.9176  161.3301 C.3     1  UNL1        0.0570
      2 C         142.4745  143.4792  159.9308 C.3     1  UNL1        0.0331
      3 C         141.4927  142.6394  159.1685 C.3     1  UNL1        0.0735
      4 N         140.1954  142.2382  159.8056 N.3     1  UNL1       -0.2710
      5 C         139.8798  142.6766  161.2050 C.3     1  UNL1        0.0735
      6 C         140.8616  143.5163  161.9672 C.3     1  UNL1        0.0331
      7 N         143.1407  144.7572  162.0923 N.3     1  UNL1       -0.2934
      8 H         143.4109  145.5252  161.4778 H       1  UNL1        0.1236
      9 C         144.4108  144.1461  162.6056 C.3     1  UNL1        0.1152
     10 O         141.5664  139.6246  168.2815 O.2     1  UNL1       -0.2707
     11 C         142.4771  139.8138  167.1047 C.2     1  UNL1        0.2718
     12 C         143.3503  138.6849  166.6430 C.3     1  UNL1        0.2898
     13 O         144.2610  138.8741  165.4662 O.3     1  UNL1       -0.4628
     14 C         144.2985  140.1921  164.7511 C.ar    1  UNL1        0.1708
     15 C         145.2092  140.3812  163.5743 C.ar    1  UNL1        0.0411
     16 C         145.2466  141.6992  162.8591 C.ar    1  UNL1        0.0193
     17 C         144.3734  142.8281  163.3208 C.ar    1  UNL1        0.0765
     18 N         143.4627  142.6390  164.4976 N.ar    1  UNL1       -0.2304
     19 C         143.4252  141.3209  165.2127 C.ar    1  UNL1        0.1682
     20 N         142.5145  141.1317  166.3895 N.am    1  UNL1       -0.2639
     21 H         141.9414  141.8726  166.6925 H       1  UNL1        0.1565
     22 C         139.2136  141.3985  159.0434 C.3     1  UNL1        0.0970
     23 C         139.1516  139.9183  159.2780 C.3     1  UNL1        0.1264
     24 N         140.4039  139.1563  159.5961 N.ar    1  UNL1       -0.2926
     25 C         141.3465  138.7693  158.4953 C.ar    1  UNL1        0.2611
     26 O         141.0368  139.1445  157.0763 O.2     1  UNL1       -0.2670
     27 C         142.5987  138.0073  158.8134 C.ar    1  UNL1        0.0623
     28 C         142.9084  137.6322  160.2324 C.ar    1  UNL1        0.0255
     29 C         141.9659  138.0191  161.3332 C.ar    1  UNL1        0.0975
     30 N         142.2755  137.6440  162.7521 N.ar    1  UNL1       -0.2392
     31 C         141.3330  138.0310  163.8530 C.ar    1  UNL1        0.1357
     32 C         140.0807  138.7930  163.5349 C.ar    1  UNL1        0.1597
     33 C         139.7710  139.1681  162.1159 C.ar    1  UNL1        0.0573
     34 C         140.7136  138.7812  161.0151 C.ar    1  UNL1        0.0832
     35 O         139.1382  139.1799  164.6357 O.3     1  UNL1       -0.4674
     36 C         138.1005  140.2366  164.3978 C.3     1  UNL1        0.2509
     37 C         138.4339  141.6807  164.6290 C.ar    1  UNL1        0.1026
     38 C         137.5599  142.7541  164.0513 C.ar    1  UNL1        0.0185
     39 C         137.8933  144.1982  164.2825 C.ar    1  UNL1        0.0029
     40 C         139.1008  144.5688  165.0914 C.ar    1  UNL1        0.0207
     41 C         139.9750  143.4954  165.6692 C.ar    1  UNL1        0.0986
     42 N         139.6415  142.0514  165.4380 N.ar    1  UNL1       -0.2445
@<TRIPOS>BOND
     1    10    11    2
     2    11    12    1
     3    12    13    1
     4    13    14    1
     5    14    15   ar
     6    15    16   ar
     7    16    17   ar
     8    17     9    1
     9     9     7    1
    10     7     1    1
    11     1     2    1
    12     2     3    1
    13     3     4    1
    14     4    22    1
    15    22    23    1
    16    23    24    1
    17    24    25   ar
    18    25    26    2
    19    25    27   ar
    20    27    28   ar
    21    28    29   ar
    22    29    30   ar
    23    30    31   ar
    24    31    32   ar
    25    32    35    1
    26    35    36    1
    27    36    37    1
    28    37    38   ar
    29    38    39   ar
    30    39    40   ar
    31    40    41   ar
    32    41    42   ar
    33    32    33   ar
    34    33    34   ar
    35     4     5    1
    36     5     6    1
    37    17    18   ar
    38    18    19   ar
    39    19    20    1
    40    20    11   am
    41    19    14   ar
    42     6     1    1
    43    34    24   ar
    44    34    29   ar
    45    42    37   ar
    46     7     8    1
    47    20    21    1
@<TRIPOS>MOLECULE
*****
 42 47 0 0 0
SMALL
GASTEIGER

@<TRIPOS>ATOM
      1 C         140.7945  144.5405  164.2026 C.3     1  UNL1        0.0570
      2 C         141.6177  145.0484  163.0561 C.3     1  UNL1        0.0331
      3 C         142.9553  144.4356  162.7638 C.3     1  UNL1        0.0735
      4 N         143.4697  143.3149  163.6179 N.3     1  UNL1       -0.2710
      5 C         142.6464  142.8071  164.7644 C.3     1  UNL1        0.0735
      6 C         141.3089  143.4199  165.0567 C.3     1  UNL1        0.0331
      7 N         139.4570  145.1533  164.4948 N.3     1  UNL1       -0.2934
      8 H         139.5030  145.5210  165.4452 H       1  UNL1        0.1236
      9 C         138.2148  144.3165  164.4139 C.3     1  UNL1        0.1152
     10 O         138.5245  142.1501  156.9332 O.2     1  UNL1       -0.2707
     11 C         138.3010  141.8081  158.3764 C.2     1  UNL1        0.2718
     12 C         137.9571  140.4020  158.7694 C.3     1  UNL1        0.2898
     13 O         137.7335  140.0599  160.2127 O.3     1  UNL1       -0.4628
     14 C         137.8538  141.1240  161.2630 C.ar    1  UNL1        0.1708
     15 C         137.6303  140.7820  162.7063 C.ar    1  UNL1        0.0411
     16 C         137.7506  141.8461  163.7565 C.ar    1  UNL1        0.0193
     17 C         138.0945  143.2524  163.3636 C.ar    1  UNL1        0.0765
     18 N         138.3180  143.5944  161.9203 N.ar    1  UNL1       -0.2304
     19 C         138.1977  142.5302  160.8700 C.ar    1  UNL1        0.1682
     20 N         138.4213  142.8722  159.4267 N.am    1  UNL1       -0.2639
     21 H         138.6470  143.7951  159.1688 H       1  UNL1        0.1565
     22 C         144.8072  142.7021  163.3256 C.3     1  UNL1        0.0970
     23 C         144.9253  141.6131  162.3009 C.3     1  UNL1        0.1264
     24 N         143.7058  141.1364  161.5691 N.ar    1  UNL1       -0.2926
     25 C         143.3355  141.7481  160.2505 C.ar    1  UNL1        0.2611
     26 O         144.1847  142.8366  159.6638 O.2     1  UNL1       -0.2670
     27 C         142.1160  141.2714  159.5186 C.ar    1  UNL1        0.0623
     28 C         141.2668  140.1829  160.1053 C.ar    1  UNL1        0.0255
     29 C         141.6372  139.5712  161.4239 C.ar    1  UNL1        0.0975
     30 N         140.7880  138.4828  162.0106 N.ar    1  UNL1       -0.2392
     31 C         141.1584  137.8711  163.3292 C.ar    1  UNL1        0.1357
     32 C         142.3778  138.3477  164.0611 C.ar    1  UNL1        0.1597
     33 C         143.2270  139.4362  163.4744 C.ar    1  UNL1        0.0573
     34 C         142.8567  140.0479  162.1558 C.ar    1  UNL1        0.0832
     35 O         142.7481  137.7360  165.3797 O.3     1  UNL1       -0.4674
     36 C         143.4367  138.5643  166.4237 C.3     1  UNL1        0.2509
     37 C         142.6428  139.1753  167.5401 C.ar    1  UNL1        0.1026
     38 C         141.4772  140.0673  167.2308 C.ar    1  UNL1        0.0185
     39 C         140.6834  140.6783  168.3472 C.ar    1  UNL1        0.0029
     40 C         141.0551  140.3974  169.7729 C.ar    1  UNL1        0.0207
     41 C         142.2207  139.5054  170.0824 C.ar    1  UNL1        0.0986
     42 N         143.0146  138.8944  168.9660 N.ar    1  UNL1       -0.2445
@<TRIPOS>BOND
     1    10    11    2
     2    11    12    1
     3    12    13    1
     4    13    14    1
     5    14    15   ar
     6    15    16   ar
     7    16    17   ar
     8    17     9    1
     9     9     7    1
    10     7     1    1
    11     1     2    1
    12     2     3    1
    13     3     4    1
    14     4    22    1
    15    22    23    1
    16    23    24    1
    17    24    25   ar
    18    25    26    2
    19    25    27   ar
    20    27    28   ar
    21    28    29   ar
    22    29    30   ar
    23    30    31   ar
    24    31    32   ar
    25    32    35    1
    26    35    36    1
    27    36    37    1
    28    37    38   ar
    29    38    39   ar
    30    39    40   ar
    31    40    41   ar
    32    41    42   ar
    33    32    33   ar
    34    33    34   ar
    35     4     5    1
    36     5     6    1
    37    17    18   ar
    38    18    19   ar
    39    19    20    1
    40    20    11   am
    41    19    14   ar
    42     6     1    1
    43    34    24   ar
    44    34    29   ar
    45    42    37   ar
    46     7     8    1
    47    20    21    1
@<TRIPOS>MOLECULE
*****
 42 47 0 0 0
SMALL
GASTEIGER

@<TRIPOS>ATOM
      1 C         143.1960  143.0598  164.5069 C.3     1  UNL1        0.0570
      2 C         142.6045  143.8482  163.3762 C.3     1  UNL1        0.0331
      3 C         141.1449  144.1941  163.3859 C.3     1  UNL1        0.0735
      4 N         140.2768  143.7515  164.5263 N.3     1  UNL1       -0.2710
      5 C         140.8684  142.9631  165.6571 C.3     1  UNL1        0.0735
      6 C         142.3279  142.6173  165.6474 C.3     1  UNL1        0.0331
      7 N         144.6555  142.7140  164.4972 N.3     1  UNL1       -0.2934
      8 H         145.0890  143.2869  163.7732 H       1  UNL1        0.1236
      9 C         145.0896  141.2999  164.2482 C.3     1  UNL1        0.1152
     10 O         143.5080  138.9298  156.9935 O.2     1  UNL1       -0.2707
     11 C         143.2556  138.8507  158.4700 C.2     1  UNL1        0.2718
     12 C         142.2236  137.9026  159.0048 C.3     1  UNL1        0.2898
     13 O         141.9712  137.8235  160.4813 O.3     1  UNL1       -0.4628
     14 C         142.7508  138.6926  161.4230 C.ar    1  UNL1        0.1708
     15 C         142.4984  138.6135  162.8995 C.ar    1  UNL1        0.0411
     16 C         143.2780  139.4826  163.8413 C.ar    1  UNL1        0.0193
     17 C         144.3100  140.4308  163.3065 C.ar    1  UNL1        0.0765
     18 N         144.5624  140.5099  161.8300 N.ar    1  UNL1       -0.2304
     19 C         143.7828  139.6407  160.8883 C.ar    1  UNL1        0.1682
     20 N         144.0352  139.7198  159.4118 N.am    1  UNL1       -0.2639
     21 H         144.7125  140.3421  159.0608 H       1  UNL1        0.1565
     22 C         138.8173  144.0973  164.5360 C.3     1  UNL1        0.0970
     23 C         137.7903  143.0208  164.3457 C.3     1  UNL1        0.1264
     24 N         138.0753  141.8651  163.4329 N.ar    1  UNL1       -0.2926
     25 C         138.1091  142.0730  161.9478 C.ar    1  UNL1        0.2611
     26 O         137.8578  143.4366  161.3754 O.2     1  UNL1       -0.2670
     27 C         138.3942  140.9173  161.0350 C.ar    1  UNL1        0.0623
     28 C         138.6455  139.5537  161.6074 C.ar    1  UNL1        0.0255
     29 C         138.6117  139.3459  163.0925 C.ar    1  UNL1        0.0975
     30 N         138.8630  137.9824  163.6649 N.ar    1  UNL1       -0.2392
     31 C         138.8292  137.7745  165.1500 C.ar    1  UNL1        0.1357
     32 C         138.5441  138.9301  166.0628 C.ar    1  UNL1        0.1597
     33 C         138.2928  140.2937  165.4904 C.ar    1  UNL1        0.0573
     34 C         138.3266  140.5016  164.0053 C.ar    1  UNL1        0.0832
     35 O         138.5104  138.7222  167.5479 O.3     1  UNL1       -0.4674
     36 C         138.7639  139.8758  168.4727 C.3     1  UNL1        0.2509
     37 C         140.1479  140.1307  168.9918 C.ar    1  UNL1        0.1026
     38 C         141.3305  139.9759  168.0822 C.ar    1  UNL1        0.0185
     39 C         142.7145  140.2308  168.6013 C.ar    1  UNL1        0.0029
     40 C         142.9159  140.6406  170.0300 C.ar    1  UNL1        0.0207
     41 C         141.7333  140.7955  170.9398 C.ar    1  UNL1        0.0986
     42 N         140.3493  140.5406  170.4206 N.ar    1  UNL1       -0.2445
@<TRIPOS>BOND
     1    10    11    2
     2    11    12    1
     3    12    13    1
     4    13    14    1
     5    14    15   ar
     6    15    16   ar
     7    16    17   ar
     8    17     9    1
     9     9     7    1
    10     7     1    1
    11     1     2    1
    12     2     3    1
    13     3     4    1
    14     4    22    1
    15    22    23    1
    16    23    24    1
    17    24    25   ar
    18    25    26    2
    19    25    27   ar
    20    27    28   ar
    21    28    29   ar
    22    29    30   ar
    23    30    31   ar
    24    31    32   ar
    25    32    35    1
    26    35    36    1
    27    36    37    1
    28    37    38   ar
    29    38    39   ar
    30    39    40   ar
    31    40    41   ar
    32    41    42   ar
    33    32    33   ar
    34    33    34   ar
    35     4     5    1
    36     5     6    1
    37    17    18   ar
    38    18    19   ar
    39    19    20    1
    40    20    11   am
    41    19    14   ar
    42     6     1    1
    43    34    24   ar
    44    34    29   ar
    45    42    37   ar
    46     7     8    1
    47    20    21    1
@<TRIPOS>MOLECULE
*****
 42 47 0 0 0
SMALL
GASTEIGER

@<TRIPOS>ATOM
      1 C         140.1784  138.2079  161.6888 C.3     1  UNL1        0.0570
      2 C         140.3837  137.8027  163.1184 C.3     1  UNL1        0.0331
      3 C         141.7167  138.0128  163.7735 C.3     1  UNL1        0.0735
      4 N         142.8443  138.6281  162.9989 N.3     1  UNL1       -0.2710
      5 C         142.6389  139.0333  161.5693 C.3     1  UNL1        0.0735
      6 C         141.3060  138.8232  160.9143 C.3     1  UNL1        0.0331
      7 N         138.8455  137.9977  161.0338 N.3     1  UNL1       -0.2934
      8 H         139.0082  138.0026  160.0269 H       1  UNL1        0.1236
      9 C         137.7217  138.9563  161.2955 C.3     1  UNL1        0.1152
     10 O         141.5094  145.4886  159.3635 O.2     1  UNL1       -0.2707
     11 C         140.5397  144.7625  160.2481 C.2     1  UNL1        0.2718
     12 C         139.8629  145.4877  161.3732 C.3     1  UNL1        0.2898
     13 O         138.8932  144.7616  162.2578 O.3     1  UNL1       -0.4628
     14 C         138.6003  143.3103  162.0172 C.ar    1  UNL1        0.1708
     15 C         137.6307  142.5842  162.9018 C.ar    1  UNL1        0.0411
     16 C         137.3378  141.1329  162.6612 C.ar    1  UNL1        0.0193
     17 C         138.0146  140.4076  161.5361 C.ar    1  UNL1        0.0765
     18 N         138.9843  141.1337  160.6515 N.ar    1  UNL1       -0.2304
     19 C         139.2772  142.5851  160.8921 C.ar    1  UNL1        0.1682
     20 N         140.2468  143.3112  160.0075 N.am    1  UNL1       -0.2639
     21 H         140.6911  142.8352  159.2690 H       1  UNL1        0.1565
     22 C         144.1772  138.8382  163.6540 C.3     1  UNL1        0.0970
     23 C         144.3665  139.9664  164.6242 C.3     1  UNL1        0.1264
     24 N         143.8979  141.3467  164.2702 N.ar    1  UNL1       -0.2926
     25 C         144.7653  142.2423  163.4363 C.ar    1  UNL1        0.2611
     26 O         146.1013  141.7577  162.9564 O.2     1  UNL1       -0.2670
     27 C         144.2967  143.6226  163.0824 C.ar    1  UNL1        0.0623
     28 C         142.9607  144.1072  163.5623 C.ar    1  UNL1        0.0255
     29 C         142.0933  143.2115  164.3962 C.ar    1  UNL1        0.0975
     30 N         140.7574  143.6961  164.8762 N.ar    1  UNL1       -0.2392
     31 C         139.8900  142.8004  165.7101 C.ar    1  UNL1        0.1357
     32 C         140.3586  141.4202  166.0640 C.ar    1  UNL1        0.1597
     33 C         141.6946  140.9356  165.5841 C.ar    1  UNL1        0.0573
     34 C         142.5620  141.8312  164.7502 C.ar    1  UNL1        0.0832
     35 O         139.4912  140.5245  166.8980 O.3     1  UNL1       -0.4674
     36 C         139.7324  140.4091  168.3740 C.3     1  UNL1        0.2509
     37 C         140.7784  141.2596  169.0317 C.ar    1  UNL1        0.1026
     38 C         140.4393  142.6486  169.4852 C.ar    1  UNL1        0.0185
     39 C         141.4852  143.4991  170.1429 C.ar    1  UNL1        0.0029
     40 C         142.8702  142.9607  170.3472 C.ar    1  UNL1        0.0207
     41 C         143.2094  141.5716  169.8938 C.ar    1  UNL1        0.0986
     42 N         142.1634  140.7211  169.2360 N.ar    1  UNL1       -0.2445
@<TRIPOS>BOND
     1    10    11    2
     2    11    12    1
     3    12    13    1
     4    13    14    1
     5    14    15   ar
     6    15    16   ar
     7    16    17   ar
     8    17     9    1
     9     9     7    1
    10     7     1    1
    11     1     2    1
    12     2     3    1
    13     3     4    1
    14     4    22    1
    15    22    23    1
    16    23    24    1
    17    24    25   ar
    18    25    26    2
    19    25    27   ar
    20    27    28   ar
    21    28    29   ar
    22    29    30   ar
    23    30    31   ar
    24    31    32   ar
    25    32    35    1
    26    35    36    1
    27    36    37    1
    28    37    38   ar
    29    38    39   ar
    30    39    40   ar
    31    40    41   ar
    32    41    42   ar
    33    32    33   ar
    34    33    34   ar
    35     4     5    1
    36     5     6    1
    37    17    18   ar
    38    18    19   ar
    39    19    20    1
    40    20    11   am
    41    19    14   ar
    42     6     1    1
    43    34    24   ar
    44    34    29   ar
    45    42    37   ar
    46     7     8    1
    47    20    21    1
@<TRIPOS>MOLECULE
*****
 42 47 0 0 0
SMALL
GASTEIGER

@<TRIPOS>ATOM
      1 C         142.8336  143.9982  163.1587 C.3     1  UNL1        0.0570
      2 C         142.6723  143.5240  164.5726 C.3     1  UNL1        0.0331
      3 C         143.2585  142.2092  164.9943 C.3     1  UNL1        0.0735
      4 N         144.0060  141.3686  164.0020 N.3     1  UNL1       -0.2710
      5 C         144.1672  141.8428  162.5880 C.3     1  UNL1        0.0735
      6 C         143.5810  143.1576  162.1664 C.3     1  UNL1        0.0331
      7 N         142.2474  145.3129  162.7371 N.3     1  UNL1       -0.2934
      8 H         142.5852  146.0117  163.3990 H       1  UNL1        0.1236
      9 C         140.7588  145.4785  162.6547 C.3     1  UNL1        0.1152
     10 O         138.5038  139.6020  158.0577 O.2     1  UNL1       -0.2707
     11 C         138.3808  140.3679  159.3416 C.2     1  UNL1        0.2718
     12 C         137.3831  139.9408  160.3770 C.3     1  UNL1        0.2898
     13 O         137.2600  140.7066  161.6609 O.3     1  UNL1       -0.4628
     14 C         138.1347  141.8996  161.9093 C.ar    1  UNL1        0.1708
     15 C         138.0116  142.6654  163.1932 C.ar    1  UNL1        0.0411
     16 C         138.8863  143.8584  163.4417 C.ar    1  UNL1        0.0193
     17 C         139.8841  144.2855  162.4062 C.ar    1  UNL1        0.0765
     18 N         140.0071  143.5197  161.1223 N.ar    1  UNL1       -0.2304
     19 C         139.1324  142.3267  160.8739 C.ar    1  UNL1        0.1682
     20 N         139.2554  141.5608  159.5900 N.am    1  UNL1       -0.2639
     21 H         139.9103  141.8411  158.9105 H       1  UNL1        0.1565
     22 C         144.5922  140.0539  164.4236 C.3     1  UNL1        0.0970
     23 C         143.6931  138.8839  164.6933 C.3     1  UNL1        0.1264
     24 N         142.5015  138.6359  163.8166 N.ar    1  UNL1       -0.2926
     25 C         142.6932  138.1505  162.4102 C.ar    1  UNL1        0.2611
     26 O         144.0764  137.9133  161.8807 O.2     1  UNL1       -0.2670
     27 C         141.5017  137.9025  161.5335 C.ar    1  UNL1        0.0623
     28 C         140.1184  138.1398  162.0630 C.ar    1  UNL1        0.0255
     29 C         139.9267  138.6251  163.4694 C.ar    1  UNL1        0.0975
     30 N         138.5435  138.8624  163.9989 N.ar    1  UNL1       -0.2392
     31 C         138.3519  139.3477  165.4052 C.ar    1  UNL1        0.1357
     32 C         139.5434  139.5957  166.2820 C.ar    1  UNL1        0.1597
     33 C         140.9266  139.3585  165.7524 C.ar    1  UNL1        0.0573
     34 C         141.1183  138.8731  164.3461 C.ar    1  UNL1        0.0832
     35 O         139.3517  140.0811  167.6883 O.3     1  UNL1       -0.4674
     36 C         140.4011  139.8092  168.7251 C.3     1  UNL1        0.2509
     37 C         141.2494  140.9313  169.2458 C.ar    1  UNL1        0.1026
     38 C         142.7267  140.7370  169.4186 C.ar    1  UNL1        0.0185
     39 C         143.5750  141.8592  169.9393 C.ar    1  UNL1        0.0029
     40 C         142.9460  143.1757  170.2873 C.ar    1  UNL1        0.0207
     41 C         141.4687  143.3701  170.1145 C.ar    1  UNL1        0.0986
     42 N         140.6204  142.2479  169.5938 N.ar    1  UNL1       -0.2445
@<TRIPOS>BOND
     1    10    11    2
     2    11    12    1
     3    12    13    1
     4    13    14    1
     5    14    15   ar
     6    15    16   ar
     7    16    17   ar
     8    17     9    1
     9     9     7    1
    10     7     1    1
    11     1     2    1
    12     2     3    1
    13     3     4    1
    14     4    22    1
    15    22    23    1
    16    23    24    1
    17    24    25   ar
    18    25    26    2
    19    25    27   ar
    20    27    28   ar
    21    28    29   ar
    22    29    30   ar
    23    30    31   ar
    24    31    32   ar
    25    32    35    1
    26    35    36    1
    27    36    37    1
    28    37    38   ar
    29    38    39   ar
    30    39    40   ar
    31    40    41   ar
    32    41    42   ar
    33    32    33   ar
    34    33    34   ar
    35     4     5    1
    36     5     6    1
    37    17    18   ar
    38    18    19   ar
    39    19    20    1
    40    20    11   am
    41    19    14   ar
    42     6     1    1
    43    34    24   ar
    44    34    29   ar
    45    42    37   ar
    46     7     8    1
    47    20    21    1
@<TRIPOS>MOLECULE
*****
 42 47 0 0 0
SMALL
GASTEIGER

@<TRIPOS>ATOM
      1 C         141.8593  138.0493  163.1306 C.3     1  UNL1        0.0570
      2 C         142.7480  138.4892  162.0052 C.3     1  UNL1        0.0331
      3 C         143.9243  139.3780  162.2818 C.3     1  UNL1        0.0735
      4 N         144.2119  139.8267  163.6839 N.3     1  UNL1       -0.2710
      5 C         143.3232  139.3867  164.8094 C.3     1  UNL1        0.0735
      6 C         142.1469  138.4980  164.5327 C.3     1  UNL1        0.0331
      7 N         140.6830  137.1606  162.8540 N.3     1  UNL1       -0.2934
      8 H         140.7183  136.9258  161.8620 H       1  UNL1        0.1236
      9 C         139.2924  137.6480  163.1345 C.3     1  UNL1        0.1152
     10 O         138.3354  145.0146  165.4937 O.2     1  UNL1       -0.2707
     11 C         138.2834  143.9813  164.4077 C.2     1  UNL1        0.2718
     12 C         137.8604  144.3700  163.0222 C.3     1  UNL1        0.2898
     13 O         137.8084  143.3367  161.9361 O.3     1  UNL1       -0.4628
     14 C         138.1794  141.9145  162.2357 C.ar    1  UNL1        0.1708
     15 C         138.1273  140.8811  161.1497 C.ar    1  UNL1        0.0411
     16 C         138.4983  139.4590  161.4493 C.ar    1  UNL1        0.0193
     17 C         138.9214  139.0701  162.8349 C.ar    1  UNL1        0.0765
     18 N         138.9734  140.1035  163.9209 N.ar    1  UNL1       -0.2304
     19 C         138.6024  141.5257  163.6213 C.ar    1  UNL1        0.1682
     20 N         138.6544  142.5591  164.7073 N.am    1  UNL1       -0.2639
     21 H         138.9320  142.3039  165.6167 H       1  UNL1        0.1565
     22 C         145.3882  140.7154  163.9606 C.3     1  UNL1        0.0970
     23 C         145.5635  141.9895  163.1887 C.3     1  UNL1        0.1264
     24 N         144.4321  142.9697  163.0922 N.ar    1  UNL1       -0.2926
     25 C         143.9437  143.6747  164.3229 C.ar    1  UNL1        0.2611
     26 O         144.5865  143.3993  165.6499 O.2     1  UNL1       -0.2670
     27 C         142.8124  144.6549  164.2265 C.ar    1  UNL1        0.0623
     28 C         142.1695  144.9302  162.8995 C.ar    1  UNL1        0.0255
     29 C         142.6580  144.2253  161.6688 C.ar    1  UNL1        0.0975
     30 N         142.0152  144.5006  160.3418 N.ar    1  UNL1       -0.2392
     31 C         142.5037  143.7957  159.1112 C.ar    1  UNL1        0.1357
     32 C         143.6350  142.8155  159.2075 C.ar    1  UNL1        0.1597
     33 C         144.2779  142.5401  160.5346 C.ar    1  UNL1        0.0573
     34 C         143.7894  143.2450  161.7652 C.ar    1  UNL1        0.0832
     35 O         144.1235  142.1106  157.9769 O.3     1  UNL1       -0.4674
     36 C         144.2981  140.6207  157.9854 C.3     1  UNL1        0.2509
     37 C         143.0988  139.7246  157.8919 C.ar    1  UNL1        0.1026
     38 C         141.7622  140.2078  158.3713 C.ar    1  UNL1        0.0185
     39 C         140.5630  139.3117  158.2778 C.ar    1  UNL1        0.0029
     40 C         140.7004  137.9322  157.7050 C.ar    1  UNL1        0.0207
     41 C         142.0371  137.4489  157.2256 C.ar    1  UNL1        0.0986
     42 N         143.2363  138.3451  157.3190 N.ar    1  UNL1       -0.2445
@<TRIPOS>BOND
     1    10    11    2
     2    11    12    1
     3    12    13    1
     4    13    14    1
     5    14    15   ar
     6    15    16   ar
     7    16    17   ar
     8    17     9    1
     9     9     7    1
    10     7     1    1
    11     1     2    1
    12     2     3    1
    13     3     4    1
    14     4    22    1
    15    22    23    1
    16    23    24    1
    17    24    25   ar
    18    25    26    2
    19    25    27   ar
    20    27    28   ar
    21    28    29   ar
    22    29    30   ar
    23    30    31   ar
    24    31    32   ar
    25    32    35    1
    26    35    36    1
    27    36    37    1
    28    37    38   ar
    29    38    39   ar
    30    39    40   ar
    31    40    41   ar
    32    41    42   ar
    33    32    33   ar
    34    33    34   ar
    35     4     5    1
    36     5     6    1
    37    17    18   ar
    38    18    19   ar
    39    19    20    1
    40    20    11   am
    41    19    14   ar
    42     6     1    1
    43    34    24   ar
    44    34    29   ar
    45    42    37   ar
    46     7     8    1
    47    20    21    1
