@<TRIPOS>MOLECULE
*****
 33 36 0 0 0
SMALL
GASTEIGER

@<TRIPOS>ATOM
      1 C         140.1299  141.1500  165.0423 C.3     1  UNL1        0.1121
      2 C         140.0082  141.1552  166.5373 C.ar    1  UNL1       -0.0068
      3 C         139.4634  140.1454  167.5034 C.ar    1  UNL1       -0.0029
      4 C         139.4740  140.4339  168.9753 C.ar    1  UNL1       -0.0003
      5 C         140.0294  141.7322  169.4811 C.ar    1  UNL1       -0.0003
      6 C         140.5743  142.7420  168.5150 C.ar    1  UNL1       -0.0045
      7 C         140.5637  142.4535  167.0431 C.ar    1  UNL1       -0.0228
      8 C         141.0286  143.2507  165.8607 C.3     1  UNL1        0.0477
      9 C         140.7606  142.4452  164.6241 C.3     1  UNL1        0.0983
     10 C         138.4139  140.1648  163.3585 C.2     1  UNL1        0.2241
     11 O         137.5639  141.3918  163.5068 O.2     1  UNL1       -0.2750
     12 N         139.6970  140.0439  164.1262 N.am    1  UNL1       -0.3007
     13 H         140.2549  139.2386  164.0289 H       1  UNL1        0.1497
     14 C         137.9810  139.0587  162.4425 C.3     1  UNL1        0.1023
     15 C         138.6773  137.7310  162.4886 C.3     1  UNL1        0.0818
     16 C         140.7725  138.2190  161.0319 C.3     1  UNL1        0.0897
     17 N         140.1607  137.6545  162.2797 N.3     1  UNL1       -0.2699
     18 C         141.0323  137.0134  163.3186 C.3     1  UNL1        0.0897
     19 N         141.0690  142.8616  163.2164 N.am    1  UNL1       -0.2990
     20 C         140.2196  143.8942  162.5366 C.2     1  UNL1        0.2636
     21 O         139.0616  144.5103  163.2643 O.2     1  UNL1       -0.2685
     22 H         141.8290  142.4572  162.7388 H       1  UNL1        0.1498
     23 C         140.5280  144.3106  161.1289 C.2     1  UNL1        0.1341
     24 C         141.6827  143.8308  160.3004 C.2     1  UNL1        0.0250
     25 C         141.6043  144.5036  158.9621 C.2     1  UNL1        0.0179
     26 C         142.4730  144.4164  157.7424 C.2     1  UNL1        0.0329
     27 C         142.1385  145.2249  156.5240 C.2     1  UNL1        0.1637
     28 F         143.0072  145.1377  155.3043 F       1  UNL1       -0.2021
     29 C         140.9353  146.1206  156.5254 C.2     1  UNL1        0.1508
     30 F         140.6008  146.9291  155.3070 F       1  UNL1       -0.2061
     31 C         140.0666  146.2078  157.7451 C.3     1  UNL1        0.1045
     32 C         140.4011  145.3993  158.9634 C.2     1  UNL1        0.0660
     33 N         139.7359  145.2801  160.3026 N.2     1  UNL1       -0.2447
@<TRIPOS>BOND
     1    16    17    1
     2    17    18    1
     3    17    15    1
     4    15    14    1
     5    14    10    1
     6    10    11    2
     7    10    12   am
     8     1    12    1
     9     1     2    1
    10     2     3   ar
    11     3     4   ar
    12     4     5   ar
    13     5     6   ar
    14     6     7   ar
    15     7     8    1
    16     8     9    1
    17     9    19    1
    18    19    20   am
    19    20    21    2
    20    20    23    1
    21    23    24    2
    22    24    25    1
    23    25    26    2
    24    26    27    1
    25    27    28    1
    26    27    29    2
    27    29    30    1
    28    29    31    1
    29    31    32    1
    30    32    33    2
    31     9     1    1
    32    33    23    1
    33     7     2   ar
    34    32    25    1
    35    12    13    1
    36    19    22    1
@<TRIPOS>MOLECULE
*****
 33 36 0 0 0
SMALL
GASTEIGER

@<TRIPOS>ATOM
      1 C         142.0896  143.7622  160.4079 C.3     1  UNL1        0.1121
      2 C         141.8874  144.3386  159.0379 C.ar    1  UNL1       -0.0068
      3 C         142.5988  144.1091  157.7374 C.ar    1  UNL1       -0.0029
      4 C         142.1642  144.8450  156.5048 C.ar    1  UNL1       -0.0003
      5 C         141.0181  145.8104  156.5726 C.ar    1  UNL1       -0.0003
      6 C         140.3068  146.0399  157.8730 C.ar    1  UNL1       -0.0045
      7 C         140.7414  145.3040  159.1057 C.ar    1  UNL1       -0.0228
      8 C         140.2353  145.3243  160.5176 C.3     1  UNL1        0.0477
      9 C         141.0685  144.3714  161.3224 C.3     1  UNL1        0.0983
     10 C         144.1967  143.1188  161.7850 C.2     1  UNL1        0.2241
     11 O         144.2227  144.4924  162.3871 O.2     1  UNL1       -0.2750
     12 N         143.1302  142.7537  160.7953 N.am    1  UNL1       -0.3007
     13 H         143.1131  141.8522  160.4001 H       1  UNL1        0.1497
     14 C         145.2373  142.1103  162.1724 C.3     1  UNL1        0.1023
     15 C         145.5875  141.9113  163.6173 C.3     1  UNL1        0.0818
     16 C         144.2091  142.9772  165.5446 C.3     1  UNL1        0.0897
     17 N         144.5000  141.8120  164.6457 N.3     1  UNL1       -0.2699
     18 C         143.7034  140.5477  164.7753 C.3     1  UNL1        0.0897
     19 N         140.9088  144.0790  162.7849 N.am    1  UNL1       -0.2990
     20 C         140.6012  142.6838  163.2416 C.2     1  UNL1        0.2636
     21 O         140.4535  141.5808  162.2358 O.2     1  UNL1       -0.2685
     22 H         141.0057  144.8029  163.4451 H       1  UNL1        0.1498
     23 C         140.4415  142.3914  164.7042 C.2     1  UNL1        0.1341
     24 C         140.5900  143.3801  165.8223 C.2     1  UNL1        0.0250
     25 C         140.3454  142.6588  167.1146 C.2     1  UNL1        0.0179
     26 C         140.3569  143.1229  168.5409 C.2     1  UNL1        0.0329
     27 C         140.0687  142.1524  169.6477 C.2     1  UNL1        0.1637
     28 F         140.0802  142.6165  171.0741 F       1  UNL1       -0.2021
     29 C         139.7690  140.7178  169.3281 C.2     1  UNL1        0.1508
     30 F         139.4808  139.7473  170.4350 F       1  UNL1       -0.2061
     31 C         139.7576  140.2537  167.9018 C.3     1  UNL1        0.1045
     32 C         140.0458  141.2242  166.7950 C.2     1  UNL1        0.0660
     33 N         140.1051  141.0588  165.3053 N.2     1  UNL1       -0.2447
@<TRIPOS>BOND
     1    16    17    1
     2    17    18    1
     3    17    15    1
     4    15    14    1
     5    14    10    1
     6    10    11    2
     7    10    12   am
     8     1    12    1
     9     1     2    1
    10     2     3   ar
    11     3     4   ar
    12     4     5   ar
    13     5     6   ar
    14     6     7   ar
    15     7     8    1
    16     8     9    1
    17     9    19    1
    18    19    20   am
    19    20    21    2
    20    20    23    1
    21    23    24    2
    22    24    25    1
    23    25    26    2
    24    26    27    1
    25    27    28    1
    26    27    29    2
    27    29    30    1
    28    29    31    1
    29    31    32    1
    30    32    33    2
    31     9     1    1
    32    33    23    1
    33     7     2   ar
    34    32    25    1
    35    12    13    1
    36    19    22    1
@<TRIPOS>MOLECULE
*****
 33 36 0 0 0
SMALL
GASTEIGER

@<TRIPOS>ATOM
      1 C         139.1530  141.3510  160.6600 C.3     1  UNL1        0.1121
      2 C         139.0639  141.1022  159.1835 C.ar    1  UNL1       -0.0068
      3 C         138.7934  142.0171  158.0260 C.ar    1  UNL1       -0.0029
      4 C         138.7652  141.4711  156.6292 C.ar    1  UNL1       -0.0003
      5 C         139.0076  140.0103  156.3899 C.ar    1  UNL1       -0.0003
      6 C         139.2782  139.0954  157.5474 C.ar    1  UNL1       -0.0045
      7 C         139.3063  139.6414  158.9442 C.ar    1  UNL1       -0.0228
      8 C         139.5453  138.9875  160.2728 C.3     1  UNL1        0.0477
      9 C         139.4505  140.0441  161.3333 C.3     1  UNL1        0.0983
     10 C         137.8984  142.8490  162.3724 C.2     1  UNL1        0.2241
     11 O         136.9983  141.6999  162.7181 O.2     1  UNL1       -0.2750
     12 N         138.9758  142.6746  161.3434 N.am    1  UNL1       -0.3007
     13 H         139.5665  143.4287  161.1164 H       1  UNL1        0.1497
     14 C         137.7211  144.1725  163.0557 C.3     1  UNL1        0.1023
     15 C         138.8825  144.8192  163.7506 C.3     1  UNL1        0.0818
     16 C         141.4437  145.0481  163.3793 C.3     1  UNL1        0.0897
     17 N         140.0372  145.3448  162.9504 N.3     1  UNL1       -0.2699
     18 C         139.7855  146.1669  161.7213 C.3     1  UNL1        0.0897
     19 N         139.6230  139.8311  162.8080 N.am    1  UNL1       -0.2990
     20 C         140.6776  140.5903  163.5572 C.2     1  UNL1        0.2636
     21 O         141.5598  141.5626  162.8316 O.2     1  UNL1       -0.2685
     22 H         139.0440  139.1929  163.2843 H       1  UNL1        0.1498
     23 C         140.8500  140.3773  165.0320 C.2     1  UNL1        0.1341
     24 C         139.7724  140.4828  166.0700 C.2     1  UNL1        0.0250
     25 C         140.3867  140.1921  167.4072 C.2     1  UNL1        0.0179
     26 C         139.8074  140.1503  168.7902 C.2     1  UNL1        0.0329
     27 C         140.6854  139.8233  169.9615 C.2     1  UNL1        0.1637
     28 F         140.1061  139.7814  171.3445 F       1  UNL1       -0.2021
     29 C         142.1428  139.5381  169.7499 C.2     1  UNL1        0.1508
     30 F         143.0208  139.2111  170.9213 F       1  UNL1       -0.2061
     31 C         142.7221  139.5800  168.3669 C.3     1  UNL1        0.1045
     32 C         141.8441  139.9070  167.1956 C.2     1  UNL1        0.0660
     33 N         142.1305  140.0215  165.7276 N.2     1  UNL1       -0.2447
@<TRIPOS>BOND
     1    16    17    1
     2    17    18    1
     3    17    15    1
     4    15    14    1
     5    14    10    1
     6    10    11    2
     7    10    12   am
     8     1    12    1
     9     1     2    1
    10     2     3   ar
    11     3     4   ar
    12     4     5   ar
    13     5     6   ar
    14     6     7   ar
    15     7     8    1
    16     8     9    1
    17     9    19    1
    18    19    20   am
    19    20    21    2
    20    20    23    1
    21    23    24    2
    22    24    25    1
    23    25    26    2
    24    26    27    1
    25    27    28    1
    26    27    29    2
    27    29    30    1
    28    29    31    1
    29    31    32    1
    30    32    33    2
    31     9     1    1
    32    33    23    1
    33     7     2   ar
    34    32    25    1
    35    12    13    1
    36    19    22    1
@<TRIPOS>MOLECULE
*****
 33 36 0 0 0
SMALL
GASTEIGER

@<TRIPOS>ATOM
      1 C         142.0705  142.2527  165.8295 C.3     1  UNL1        0.1121
      2 C         142.0091  142.3376  167.3259 C.ar    1  UNL1       -0.0068
      3 C         142.9776  141.9269  168.3951 C.ar    1  UNL1       -0.0029
      4 C         142.6350  142.1408  169.8396 C.ar    1  UNL1       -0.0003
      5 C         141.3240  142.7656  170.2150 C.ar    1  UNL1       -0.0003
      6 C         140.3555  143.1763  169.1458 C.ar    1  UNL1       -0.0045
      7 C         140.6981  142.9624  167.7012 C.ar    1  UNL1       -0.0228
      8 C         139.9493  143.2635  166.4368 C.3     1  UNL1        0.0477
      9 C         140.7975  142.8248  165.2801 C.3     1  UNL1        0.0983
     10 C         144.4483  142.5073  164.8138 C.2     1  UNL1        0.2241
     11 O         144.5556  143.8799  165.4091 O.2     1  UNL1       -0.2750
     12 N         143.2057  141.6936  165.0241 N.am    1  UNL1       -0.3007
     13 H         143.1353  140.7927  164.6334 H       1  UNL1        0.1497
     14 C         145.5835  141.9482  164.0084 C.3     1  UNL1        0.1023
     15 C         145.4007  141.6729  162.5453 C.3     1  UNL1        0.0818
     16 C         144.1942  139.3723  162.5025 C.3     1  UNL1        0.0897
     17 N         144.2650  140.8101  162.0808 N.3     1  UNL1       -0.2699
     18 C         143.2001  141.3850  161.1945 C.3     1  UNL1        0.0897
     19 N         140.4361  142.9385  163.8287 N.am    1  UNL1       -0.2990
     20 C         141.0181  144.0413  162.9950 C.2     1  UNL1        0.2636
     21 O         141.9615  145.0305  163.6127 O.2     1  UNL1       -0.2685
     22 H         139.8169  142.2892  163.4233 H       1  UNL1        0.1498
     23 C         140.6567  144.1549  161.5436 C.2     1  UNL1        0.1341
     24 C         139.9203  143.1281  160.7353 C.2     1  UNL1        0.0250
     25 C         139.7768  143.6538  159.3378 C.2     1  UNL1        0.0179
     26 C         139.1400  143.0763  158.1087 C.2     1  UNL1        0.0329
     27 C         139.1509  143.8506  156.8241 C.2     1  UNL1        0.1637
     28 F         138.5141  143.2731  155.5948 F       1  UNL1       -0.2021
     29 C         139.7985  145.2025  156.7686 C.2     1  UNL1        0.1508
     30 F         139.8093  145.9768  155.4839 F       1  UNL1       -0.2061
     31 C         140.4353  145.7800  157.9978 C.3     1  UNL1        0.1045
     32 C         140.4244  145.0057  159.2824 C.2     1  UNL1        0.0660
     33 N         140.9682  145.3154  160.6457 N.2     1  UNL1       -0.2447
@<TRIPOS>BOND
     1    16    17    1
     2    17    18    1
     3    17    15    1
     4    15    14    1
     5    14    10    1
     6    10    11    2
     7    10    12   am
     8     1    12    1
     9     1     2    1
    10     2     3   ar
    11     3     4   ar
    12     4     5   ar
    13     5     6   ar
    14     6     7   ar
    15     7     8    1
    16     8     9    1
    17     9    19    1
    18    19    20   am
    19    20    21    2
    20    20    23    1
    21    23    24    2
    22    24    25    1
    23    25    26    2
    24    26    27    1
    25    27    28    1
    26    27    29    2
    27    29    30    1
    28    29    31    1
    29    31    32    1
    30    32    33    2
    31     9     1    1
    32    33    23    1
    33     7     2   ar
    34    32    25    1
    35    12    13    1
    36    19    22    1
@<TRIPOS>MOLECULE
*****
 33 36 0 0 0
SMALL
GASTEIGER

@<TRIPOS>ATOM
      1 C         140.8213  142.2342  166.2417 C.3     1  UNL1        0.1121
      2 C         141.2332  142.5510  167.6489 C.ar    1  UNL1       -0.0068
      3 C         140.4959  143.1824  168.7924 C.ar    1  UNL1       -0.0029
      4 C         141.1822  143.3749  170.1123 C.ar    1  UNL1       -0.0003
      5 C         142.6056  142.9360  170.2885 C.ar    1  UNL1       -0.0003
      6 C         143.3429  142.3045  169.1450 C.ar    1  UNL1       -0.0045
      7 C         142.6566  142.1121  167.8252 C.ar    1  UNL1       -0.0228
      8 C         143.1245  141.5240  166.5270 C.3     1  UNL1        0.0477
      9 C         141.9902  141.5995  165.5484 C.3     1  UNL1        0.0983
     10 C         139.2496  143.7585  164.8430 C.2     1  UNL1        0.2241
     11 O         140.3672  144.7418  164.6586 O.2     1  UNL1       -0.2750
     12 N         139.4766  142.5047  165.6346 N.am    1  UNL1       -0.3007
     13 H         138.7430  141.8594  165.7557 H       1  UNL1        0.1497
     14 C         137.9049  144.0290  164.2359 C.3     1  UNL1        0.1023
     15 C         137.7115  143.9001  162.7540 C.3     1  UNL1        0.0818
     16 C         138.2636  142.4064  160.7011 C.3     1  UNL1        0.0897
     17 N         137.7582  142.5479  162.1064 N.3     1  UNL1       -0.2699
     18 C         137.2995  141.3373  162.8640 C.3     1  UNL1        0.0897
     19 N         142.0197  141.1238  164.1261 N.am    1  UNL1       -0.2990
     20 C         141.0890  140.0354  163.6799 C.2     1  UNL1        0.2636
     21 O         140.1288  139.4226  164.6559 O.2     1  UNL1       -0.2685
     22 H         142.6498  141.5260  163.4855 H       1  UNL1        0.1498
     23 C         141.1184  139.5597  162.2576 C.2     1  UNL1        0.1341
     24 C         139.9226  139.2554  161.4047 C.2     1  UNL1        0.0250
     25 C         140.4140  138.8124  160.0585 C.2     1  UNL1        0.0179
     26 C         139.6897  138.3852  158.8164 C.2     1  UNL1        0.0329
     27 C         140.4650  137.9885  157.5951 C.2     1  UNL1        0.1637
     28 F         139.7407  137.5613  156.3529 F       1  UNL1       -0.2021
     29 C         141.9645  138.0189  157.6160 C.2     1  UNL1        0.1508
     30 F         142.7398  137.6221  156.3946 F       1  UNL1       -0.2061
     31 C         142.6888  138.4461  158.8581 C.3     1  UNL1        0.1045
     32 C         141.9135  138.8428  160.0794 C.2     1  UNL1        0.0660
     33 N         142.3490  139.3047  161.4385 N.2     1  UNL1       -0.2447
@<TRIPOS>BOND
     1    16    17    1
     2    17    18    1
     3    17    15    1
     4    15    14    1
     5    14    10    1
     6    10    11    2
     7    10    12   am
     8     1    12    1
     9     1     2    1
    10     2     3   ar
    11     3     4   ar
    12     4     5   ar
    13     5     6   ar
    14     6     7   ar
    15     7     8    1
    16     8     9    1
    17     9    19    1
    18    19    20   am
    19    20    21    2
    20    20    23    1
    21    23    24    2
    22    24    25    1
    23    25    26    2
    24    26    27    1
    25    27    28    1
    26    27    29    2
    27    29    30    1
    28    29    31    1
    29    31    32    1
    30    32    33    2
    31     9     1    1
    32    33    23    1
    33     7     2   ar
    34    32    25    1
    35    12    13    1
    36    19    22    1
@<TRIPOS>MOLECULE
*****
 33 36 0 0 0
SMALL
GASTEIGER

@<TRIPOS>ATOM
      1 C         141.9563  141.0254  166.0822 C.3     1  UNL1        0.1121
      2 C         141.6651  140.6243  167.4979 C.ar    1  UNL1       -0.0068
      3 C         142.5635  140.2797  168.6486 C.ar    1  UNL1       -0.0029
      4 C         141.9726  139.9087  169.9764 C.ar    1  UNL1       -0.0003
      5 C         140.4834  139.8823  170.1536 C.ar    1  UNL1       -0.0003
      6 C         139.5849  140.2269  169.0029 C.ar    1  UNL1       -0.0045
      7 C         140.1758  140.5979  167.6751 C.ar    1  UNL1       -0.0228
      8 C         139.5467  140.9827  166.3689 C.3     1  UNL1        0.0477
      9 C         140.6472  141.2469  165.3844 C.3     1  UNL1        0.0983
     10 C         143.8637  140.1044  164.5774 C.2     1  UNL1        0.2241
     11 O         143.0479  138.8779  164.2941 O.2     1  UNL1       -0.2750
     12 N         143.3179  141.1782  165.4715 N.am    1  UNL1       -0.3007
     13 H         143.8533  141.9832  165.6574 H       1  UNL1        0.1497
     14 C         145.2252  140.2572  163.9667 C.3     1  UNL1        0.1023
     15 C         145.6350  141.5694  163.3668 C.3     1  UNL1        0.0818
     16 C         144.3358  143.8038  163.1019 C.3     1  UNL1        0.0897
     17 N         144.6275  142.4077  162.6371 N.3     1  UNL1       -0.2699
     18 C         143.9118  141.8499  161.4428 C.3     1  UNL1        0.0897
     19 N         140.4696  141.6601  163.9534 N.am    1  UNL1       -0.2990
     20 C         140.7029  143.0858  163.5500 C.2     1  UNL1        0.2636
     21 O         141.1137  144.0985  164.5775 O.2     1  UNL1       -0.2685
     22 H         140.1999  140.9955  163.2790 H       1  UNL1        0.1498
     23 C         140.5253  143.4990  162.1190 C.2     1  UNL1        0.1341
     24 C         141.0767  144.7416  161.4851 C.2     1  UNL1        0.0250
     25 C         140.6573  144.7527  160.0450 C.2     1  UNL1        0.0179
     26 C         140.9089  145.7285  158.9338 C.2     1  UNL1        0.0329
     27 C         140.3498  145.4684  157.5665 C.2     1  UNL1        0.1637
     28 F         140.6013  146.4441  156.4552 F       1  UNL1       -0.2021
     29 C         139.5391  144.2326  157.3103 C.2     1  UNL1        0.1508
     30 F         138.9800  143.9725  155.9428 F       1  UNL1       -0.2061
     31 C         139.2875  143.2569  158.4214 C.3     1  UNL1        0.1045
     32 C         139.8467  143.5170  159.7887 C.2     1  UNL1        0.0660
     33 N         139.7650  142.7421  161.0705 N.2     1  UNL1       -0.2447
@<TRIPOS>BOND
     1    16    17    1
     2    17    18    1
     3    17    15    1
     4    15    14    1
     5    14    10    1
     6    10    11    2
     7    10    12   am
     8     1    12    1
     9     1     2    1
    10     2     3   ar
    11     3     4   ar
    12     4     5   ar
    13     5     6   ar
    14     6     7   ar
    15     7     8    1
    16     8     9    1
    17     9    19    1
    18    19    20   am
    19    20    21    2
    20    20    23    1
    21    23    24    2
    22    24    25    1
    23    25    26    2
    24    26    27    1
    25    27    28    1
    26    27    29    2
    27    29    30    1
    28    29    31    1
    29    31    32    1
    30    32    33    2
    31     9     1    1
    32    33    23    1
    33     7     2   ar
    34    32    25    1
    35    12    13    1
    36    19    22    1
@<TRIPOS>MOLECULE
*****
 33 36 0 0 0
SMALL
GASTEIGER

@<TRIPOS>ATOM
      1 C         142.5842  141.5188  166.1307 C.3     1  UNL1        0.1121
      2 C         142.6656  141.2485  167.6039 C.ar    1  UNL1       -0.0068
      3 C         142.7846  142.1629  168.7870 C.ar    1  UNL1       -0.0029
      4 C         142.8462  141.5921  170.1727 C.ar    1  UNL1       -0.0003
      5 C         142.7887  140.1070  170.3754 C.ar    1  UNL1       -0.0003
      6 C         142.6697  139.1926  169.1923 C.ar    1  UNL1       -0.0045
      7 C         142.6081  139.7634  167.8066 C.ar    1  UNL1       -0.0228
      8 C         142.4912  139.1158  166.4586 C.3     1  UNL1        0.0477
      9 C         142.4764  140.2007  165.4228 C.3     1  UNL1        0.0983
     10 C         143.8522  143.3533  164.7976 C.2     1  UNL1        0.2241
     11 O         145.0752  142.4854  164.7666 O.2     1  UNL1       -0.2750
     12 N         142.6066  142.8699  165.4796 N.am    1  UNL1       -0.3007
     13 H         141.8038  143.4395  165.4999 H       1  UNL1        0.1497
     14 C         143.8746  144.7044  164.1465 C.3     1  UNL1        0.1023
     15 C         143.2084  144.9079  162.8181 C.3     1  UNL1        0.0818
     16 C         140.6281  145.1202  163.0351 C.3     1  UNL1        0.0897
     17 N         141.8347  144.3564  162.5757 N.3     1  UNL1       -0.2699
     18 C         141.6675  143.0413  161.8740 C.3     1  UNL1        0.0897
     19 N         142.3721  140.0023  163.9397 N.am    1  UNL1       -0.2990
     20 C         143.5708  139.5550  163.1567 C.2     1  UNL1        0.2636
     21 O         144.8738  139.3061  163.8569 O.2     1  UNL1       -0.2685
     22 H         141.5170  140.1657  163.4801 H       1  UNL1        0.1498
     23 C         143.4665  139.3567  161.6735 C.2     1  UNL1        0.1341
     24 C         142.9504  138.1296  160.9822 C.2     1  UNL1        0.0250
     25 C         143.0250  138.3651  159.5027 C.2     1  UNL1        0.0179
     26 C         142.6535  137.5070  158.3298 C.2     1  UNL1        0.0329
     27 C         142.8444  138.0215  156.9339 C.2     1  UNL1        0.1637
     28 F         142.4729  137.1634  155.7609 F       1  UNL1       -0.2021
     29 C         143.4066  139.3941  156.7108 C.2     1  UNL1        0.1508
     30 F         143.5974  139.9086  155.3147 F       1  UNL1       -0.2061
     31 C         143.7780  140.2522  157.8836 C.3     1  UNL1        0.1045
     32 C         143.5872  139.7377  159.2796 C.2     1  UNL1        0.0660
     33 N         143.8601  140.3506  160.6212 N.2     1  UNL1       -0.2447
@<TRIPOS>BOND
     1    16    17    1
     2    17    18    1
     3    17    15    1
     4    15    14    1
     5    14    10    1
     6    10    11    2
     7    10    12   am
     8     1    12    1
     9     1     2    1
    10     2     3   ar
    11     3     4   ar
    12     4     5   ar
    13     5     6   ar
    14     6     7   ar
    15     7     8    1
    16     8     9    1
    17     9    19    1
    18    19    20   am
    19    20    21    2
    20    20    23    1
    21    23    24    2
    22    24    25    1
    23    25    26    2
    24    26    27    1
    25    27    28    1
    26    27    29    2
    27    29    30    1
    28    29    31    1
    29    31    32    1
    30    32    33    2
    31     9     1    1
    32    33    23    1
    33     7     2   ar
    34    32    25    1
    35    12    13    1
    36    19    22    1
@<TRIPOS>MOLECULE
*****
 33 36 0 0 0
SMALL
GASTEIGER

@<TRIPOS>ATOM
      1 C         140.2669  140.9036  166.5093 C.3     1  UNL1        0.1121
      2 C         140.4438  140.9585  167.9978 C.ar    1  UNL1       -0.0068
      3 C         140.6624  139.8854  169.0228 C.ar    1  UNL1       -0.0029
      4 C         140.8073  140.2496  170.4706 C.ar    1  UNL1       -0.0003
      5 C         140.7336  141.6869  170.8935 C.ar    1  UNL1       -0.0003
      6 C         140.5150  142.7600  169.8685 C.ar    1  UNL1       -0.0045
      7 C         140.3701  142.3957  168.4206 C.ar    1  UNL1       -0.0228
      8 C         140.1477  143.2291  167.1934 C.3     1  UNL1        0.0477
      9 C         140.0839  142.3069  166.0121 C.3     1  UNL1        0.0983
     10 C         139.0445  138.8046  165.5870 C.2     1  UNL1        0.2241
     11 O         137.8117  139.1867  166.3514 O.2     1  UNL1       -0.2750
     12 N         140.2721  139.6631  165.6659 N.am    1  UNL1       -0.3007
     13 H         141.0812  139.4123  165.1642 H       1  UNL1        0.1497
     14 C         139.0497  137.5641  164.7437 C.3     1  UNL1        0.1023
     15 C         138.7610  137.6549  163.2746 C.3     1  UNL1        0.0818
     16 C         141.2983  137.5404  162.7278 C.3     1  UNL1        0.0897
     17 N         139.8877  137.8144  162.2973 N.3     1  UNL1       -0.2699
     18 C         139.6038  138.2478  160.8897 C.3     1  UNL1        0.0897
     19 N         139.8740  142.7162  164.5844 N.am    1  UNL1       -0.2990
     20 C         141.0551  142.9487  163.6894 C.2     1  UNL1        0.2636
     21 O         142.4462  142.7720  164.2222 O.2     1  UNL1       -0.2685
     22 H         138.9611  142.8321  164.2347 H       1  UNL1        0.1498
     23 C         140.8452  143.3580  162.2617 C.2     1  UNL1        0.1341
     24 C         139.9520  142.6730  161.2703 C.2     1  UNL1        0.0250
     25 C         140.0464  143.4157  159.9706 C.2     1  UNL1        0.0179
     26 C         139.3888  143.1981  158.6401 C.2     1  UNL1        0.0329
     27 C         139.6828  144.1246  157.4977 C.2     1  UNL1        0.1637
     28 F         139.0252  143.9070  156.1672 F       1  UNL1       -0.2021
     29 C         140.6344  145.2687  157.6858 C.2     1  UNL1        0.1508
     30 F         140.9285  146.1952  156.5433 F       1  UNL1       -0.2061
     31 C         141.2920  145.4864  159.0162 C.3     1  UNL1        0.1045
     32 C         140.9980  144.5599  160.1586 C.2     1  UNL1        0.0660
     33 N         141.4917  144.5243  161.5746 N.2     1  UNL1       -0.2447
@<TRIPOS>BOND
     1    16    17    1
     2    17    18    1
     3    17    15    1
     4    15    14    1
     5    14    10    1
     6    10    11    2
     7    10    12   am
     8     1    12    1
     9     1     2    1
    10     2     3   ar
    11     3     4   ar
    12     4     5   ar
    13     5     6   ar
    14     6     7   ar
    15     7     8    1
    16     8     9    1
    17     9    19    1
    18    19    20   am
    19    20    21    2
    20    20    23    1
    21    23    24    2
    22    24    25    1
    23    25    26    2
    24    26    27    1
    25    27    28    1
    26    27    29    2
    27    29    30    1
    28    29    31    1
    29    31    32    1
    30    32    33    2
    31     9     1    1
    32    33    23    1
    33     7     2   ar
    34    32    25    1
    35    12    13    1
    36    19    22    1
@<TRIPOS>MOLECULE
*****
 33 36 0 0 0
SMALL
GASTEIGER

@<TRIPOS>ATOM
      1 C         139.6589  142.4936  160.6379 C.3     1  UNL1        0.1121
      2 C         139.7815  143.2026  159.3217 C.ar    1  UNL1       -0.0068
      3 C         139.6239  142.7280  157.9076 C.ar    1  UNL1       -0.0029
      4 C         139.8109  143.6869  156.7694 C.ar    1  UNL1       -0.0003
      5 C         140.1555  145.1205  157.0455 C.ar    1  UNL1       -0.0003
      6 C         140.3131  145.5951  158.4596 C.ar    1  UNL1       -0.0045
      7 C         140.1261  144.6361  159.5977 C.ar    1  UNL1       -0.0228
      8 C         140.2165  144.8131  161.0845 C.3     1  UNL1        0.0477
      9 C         139.9277  143.4890  161.7274 C.3     1  UNL1        0.0983
     10 C         138.1203  140.6514  161.6326 C.2     1  UNL1        0.2241
     11 O         137.2479  141.7087  162.2416 O.2     1  UNL1       -0.2750
     12 N         139.3259  141.0438  160.8308 N.am    1  UNL1       -0.3007
     13 H         139.8985  140.3498  160.4311 H       1  UNL1        0.1497
     14 C         137.7873  139.2016  161.8254 C.3     1  UNL1        0.1023
     15 C         138.7607  138.1448  161.3945 C.3     1  UNL1        0.0818
     16 C         140.2412  137.9896  163.5240 C.3     1  UNL1        0.0897
     17 N         140.1168  138.0699  162.0312 N.3     1  UNL1       -0.2699
     18 C         141.3486  138.0752  161.1753 C.3     1  UNL1        0.0897
     19 N         139.9107  143.2093  163.2010 N.am    1  UNL1       -0.2990
     20 C         140.8144  142.1591  163.7756 C.2     1  UNL1        0.2636
     21 O         141.7352  141.3884  162.8765 O.2     1  UNL1       -0.2685
     22 H         139.3064  143.7151  163.7911 H       1  UNL1        0.1498
     23 C         140.7974  141.8794  165.2492 C.2     1  UNL1        0.1341
     24 C         139.9603  140.8444  165.9406 C.2     1  UNL1        0.0250
     25 C         140.2601  140.9110  167.4088 C.2     1  UNL1        0.0179
     26 C         139.7342  140.1307  168.5770 C.2     1  UNL1        0.0329
     27 C         140.2307  140.4266  169.9611 C.2     1  UNL1        0.1637
     28 F         139.7048  139.6464  171.1293 F       1  UNL1       -0.2021
     29 C         141.2531  141.5028  170.1771 C.2     1  UNL1        0.1508
     30 F         141.7496  141.7986  171.5614 F       1  UNL1       -0.2061
     31 C         141.7790  142.2830  169.0090 C.3     1  UNL1        0.1045
     32 C         141.2825  141.9871  167.6248 C.2     1  UNL1        0.0660
     33 N         141.6146  142.5857  166.2901 N.2     1  UNL1       -0.2447
@<TRIPOS>BOND
     1    16    17    1
     2    17    18    1
     3    17    15    1
     4    15    14    1
     5    14    10    1
     6    10    11    2
     7    10    12   am
     8     1    12    1
     9     1     2    1
    10     2     3   ar
    11     3     4   ar
    12     4     5   ar
    13     5     6   ar
    14     6     7   ar
    15     7     8    1
    16     8     9    1
    17     9    19    1
    18    19    20   am
    19    20    21    2
    20    20    23    1
    21    23    24    2
    22    24    25    1
    23    25    26    2
    24    26    27    1
    25    27    28    1
    26    27    29    2
    27    29    30    1
    28    29    31    1
    29    31    32    1
    30    32    33    2
    31     9     1    1
    32    33    23    1
    33     7     2   ar
    34    32    25    1
    35    12    13    1
    36    19    22    1
