@<TRIPOS>MOLECULE
*****
 40 43 0 0 0
SMALL
GASTEIGER

@<TRIPOS>ATOM
      1 C         138.2708  140.2800  162.4606 C.ar    1  UNL1        0.2220
      2 N         137.5157  140.3370  161.1657 N.ar    1  UNL1       -0.2110
      3 C         138.2128  140.0187  159.8763 C.ar    1  UNL1        0.1160
      4 C         139.6652  139.6434  159.8817 C.ar    1  UNL1        0.1085
      5 CL        140.3623  139.3251  158.5922 Cl      1  UNL1       -0.0777
      6 C         140.4202  139.5864  161.1765 C.ar    1  UNL1        0.1472
      7 N         139.7231  139.9047  162.4659 N.ar    1  UNL1       -0.1976
      8 N         137.5737  140.5982  163.7500 N.pl3   1  UNL1       -0.2801
      9 H         136.6117  140.8077  163.7509 H       1  UNL1        0.1552
     10 C         139.3034  141.7091  165.3388 C.ar    1  UNL1        0.1514
     11 C         140.0719  141.7082  166.6270 C.ar    1  UNL1        0.0339
     12 C         139.8792  140.5957  167.6145 C.ar    1  UNL1       -0.0193
     13 C         138.9181  139.4840  167.3139 C.ar    1  UNL1       -0.0028
     14 C         138.1496  139.4849  166.0257 C.ar    1  UNL1        0.0174
     15 C         138.3422  140.5974  165.0382 C.ar    1  UNL1        0.0849
     16 C         140.6478  140.5949  168.9027 C.3     1  UNL1        0.0252
     17 C         141.8688  139.7356  169.0470 C.3     1  UNL1        0.0215
     18 C         142.6373  139.7347  170.3351 C.3     1  UNL1        0.0689
     19 N         142.1849  140.5933  171.4790 N.3     1  UNL1       -0.2974
     20 C         140.9640  141.4526  171.3347 C.3     1  UNL1        0.0689
     21 C         140.1954  141.4534  170.0465 C.3     1  UNL1        0.0215
     22 H         142.9597  141.2177  171.7029 H       1  UNL1        0.1232
     23 O         139.4960  142.8216  164.3513 O.3     1  UNL1       -0.4779
     24 C         138.5308  144.9236  165.5346 C.3     1  UNL1        0.0472
     25 C         138.5646  143.9974  164.3551 C.3     1  UNL1        0.1662
     26 C         137.6671  144.2472  163.1794 C.3     1  UNL1        0.0472
     27 N         141.8726  139.2111  161.1819 N.pl3   1  UNL1       -0.2961
     28 H         142.1390  138.2727  161.0487 H       1  UNL1        0.1537
     29 C         142.9189  140.2655  161.3901 C.ar    1  UNL1        0.0667
     30 C         143.3116  141.1665  160.2570 C.ar    1  UNL1        0.0159
     31 C         144.3579  142.2209  160.4652 C.ar    1  UNL1        0.0014
     32 C         145.0116  142.3743  161.8066 C.ar    1  UNL1        0.0014
     33 C         144.6190  141.4732  162.9397 C.ar    1  UNL1        0.0196
     34 C         143.5726  140.4188  162.7314 C.ar    1  UNL1        0.1189
     35 S         143.1799  139.5177  163.8645 S.O2    1  UNL1        0.0082
     36 O         143.7135  138.3363  163.1098 O.2     1  UNL1       -0.1686
     37 O         142.6464  140.6992  164.6191 O.2     1  UNL1       -0.1686
     38 C         142.7873  138.6167  164.9976 C.3     1  UNL1        0.1340
     39 C         143.7391  138.3809  166.1328 C.3     1  UNL1        0.0257
     40 C         141.4429  137.9514  164.9955 C.3     1  UNL1        0.0257
@<TRIPOS>BOND
     1    24    25    1
     2    25    26    1
     3    25    23    1
     4    23    10    1
     5    10    11   ar
     6    11    12   ar
     7    12    16    1
     8    16    17    1
     9    17    18    1
    10    18    19    1
    11    19    20    1
    12    20    21    1
    13    12    13   ar
    14    13    14   ar
    15    14    15   ar
    16    15     8    1
    17     8     1    1
    18     1     2   ar
    19     2     3   ar
    20     3     4   ar
    21     4     5    1
    22     4     6   ar
    23     6    27    1
    24    27    29    1
    25    29    30   ar
    26    30    31   ar
    27    31    32   ar
    28    32    33   ar
    29    33    34   ar
    30    34    35    1
    31    35    36    2
    32    35    37    2
    33    35    38    1
    34    38    39    1
    35    38    40    1
    36     6     7   ar
    37    15    10   ar
    38     7     1   ar
    39    21    16    1
    40    34    29   ar
    41    19    22    1
    42     8     9    1
    43    27    28    1
@<TRIPOS>MOLECULE
*****
 40 43 0 0 0
SMALL
GASTEIGER

@<TRIPOS>ATOM
      1 C         143.4323  140.6031  162.2701 C.ar    1  UNL1        0.2220
      2 N         144.0573  140.6953  160.9096 N.ar    1  UNL1       -0.2110
      3 C         143.1936  140.8932  159.6993 C.ar    1  UNL1        0.1160
      4 C         141.7048  140.9990  159.8496 C.ar    1  UNL1        0.1085
      5 CL        140.8411  141.1969  158.6393 Cl      1  UNL1       -0.0777
      6 C         141.0799  140.9068  161.2100 C.ar    1  UNL1        0.1472
      7 N         141.9436  140.7088  162.4203 N.ar    1  UNL1       -0.1976
      8 N         144.2961  140.4051  163.4804 N.pl3   1  UNL1       -0.2801
      9 H         145.2611  140.2414  163.3749 H       1  UNL1        0.1552
     10 C         143.5951  141.7636  165.5812 C.ar    1  UNL1        0.1514
     11 C         142.9884  141.8150  166.9520 C.ar    1  UNL1        0.0339
     12 C         142.4761  140.5593  167.5930 C.ar    1  UNL1       -0.0193
     13 C         142.5705  139.2523  166.8632 C.ar    1  UNL1       -0.0028
     14 C         143.1771  139.2009  165.4923 C.ar    1  UNL1        0.0174
     15 C         143.6894  140.4566  164.8513 C.ar    1  UNL1        0.0849
     16 C         141.8695  140.6108  168.9640 C.3     1  UNL1        0.0252
     17 C         142.5859  141.3196  170.0750 C.3     1  UNL1        0.0215
     18 C         141.9793  141.3710  171.4459 C.3     1  UNL1        0.0689
     19 N         140.6562  140.7137  171.7058 N.3     1  UNL1       -0.2974
     20 C         139.9398  140.0049  170.5947 C.3     1  UNL1        0.0689
     21 C         140.5465  139.9534  169.2238 C.3     1  UNL1        0.0215
     22 H         140.0272  141.4417  172.0445 H       1  UNL1        0.1232
     23 O         144.1074  143.0192  164.9401 O.3     1  UNL1       -0.4779
     24 C         141.6782  143.7031  164.3225 C.3     1  UNL1        0.0472
     25 C         143.1558  143.9516  164.2509 C.3     1  UNL1        0.1662
     26 C         143.6817  145.1326  163.4901 C.3     1  UNL1        0.0472
     27 N         139.5911  141.0125  161.3603 N.pl3   1  UNL1       -0.2961
     28 H         139.0008  140.4159  160.8457 H       1  UNL1        0.1537
     29 C         139.0018  142.0272  162.2947 C.ar    1  UNL1        0.0667
     30 C         138.8387  143.4505  161.8501 C.ar    1  UNL1        0.0159
     31 C         138.2494  144.4652  162.7845 C.ar    1  UNL1        0.0014
     32 C         137.8232  144.0566  164.1634 C.ar    1  UNL1        0.0014
     33 C         137.9863  142.6333  164.6080 C.ar    1  UNL1        0.0196
     34 C         138.5756  141.6186  163.6735 C.ar    1  UNL1        0.1189
     35 S         138.7388  140.1953  164.1181 S.O2    1  UNL1        0.0082
     36 O         137.7206  139.7623  163.1053 O.2     1  UNL1       -0.1686
     37 O         139.7570  140.6284  165.1309 O.2     1  UNL1       -0.1686
     38 C         138.9019  138.7720  164.5626 C.3     1  UNL1        0.1340
     39 C         138.4251  138.3513  165.9212 C.3     1  UNL1        0.0257
     40 C         139.5419  137.7695  163.6487 C.3     1  UNL1        0.0257
@<TRIPOS>BOND
     1    24    25    1
     2    25    26    1
     3    25    23    1
     4    23    10    1
     5    10    11   ar
     6    11    12   ar
     7    12    16    1
     8    16    17    1
     9    17    18    1
    10    18    19    1
    11    19    20    1
    12    20    21    1
    13    12    13   ar
    14    13    14   ar
    15    14    15   ar
    16    15     8    1
    17     8     1    1
    18     1     2   ar
    19     2     3   ar
    20     3     4   ar
    21     4     5    1
    22     4     6   ar
    23     6    27    1
    24    27    29    1
    25    29    30   ar
    26    30    31   ar
    27    31    32   ar
    28    32    33   ar
    29    33    34   ar
    30    34    35    1
    31    35    36    2
    32    35    37    2
    33    35    38    1
    34    38    39    1
    35    38    40    1
    36     6     7   ar
    37    15    10   ar
    38     7     1   ar
    39    21    16    1
    40    34    29   ar
    41    19    22    1
    42     8     9    1
    43    27    28    1
@<TRIPOS>MOLECULE
*****
 40 43 0 0 0
SMALL
GASTEIGER

@<TRIPOS>ATOM
      1 C         143.5529  139.3555  161.9416 C.ar    1  UNL1        0.2220
      2 N         144.0501  139.0923  160.5510 N.ar    1  UNL1       -0.2110
      3 C         143.0789  138.7555  159.4585 C.ar    1  UNL1        0.1160
      4 C         141.6106  138.6819  159.7566 C.ar    1  UNL1        0.1085
      5 CL        140.6395  138.3452  158.6642 Cl      1  UNL1       -0.0777
      6 C         141.1136  138.9452  161.1471 C.ar    1  UNL1        0.1472
      7 N         142.0847  139.2820  162.2396 N.ar    1  UNL1       -0.1976
      8 N         144.5240  139.6923  163.0340 N.pl3   1  UNL1       -0.2801
      9 H         145.4830  139.5040  162.9155 H       1  UNL1        0.1552
     10 C         144.1120  141.8026  164.4925 C.ar    1  UNL1        0.1514
     11 C         143.6220  142.4264  165.7655 C.ar    1  UNL1        0.0339
     12 C         143.0538  141.5637  166.8532 C.ar    1  UNL1       -0.0193
     13 C         142.9758  140.0773  166.6679 C.ar    1  UNL1       -0.0028
     14 C         143.4658  139.4535  165.3948 C.ar    1  UNL1        0.0174
     15 C         144.0340  140.3162  164.3071 C.ar    1  UNL1        0.0849
     16 C         142.5638  142.1876  168.1263 C.3     1  UNL1        0.0252
     17 C         143.5068  142.3861  169.2758 C.3     1  UNL1        0.0215
     18 C         143.0168  143.0099  170.5488 C.3     1  UNL1        0.0689
     19 N         141.5837  143.4352  170.6725 N.3     1  UNL1       -0.2974
     20 C         140.6406  143.2367  169.5231 C.3     1  UNL1        0.0689
     21 C         141.1307  142.6129  168.2499 C.3     1  UNL1        0.0215
     22 H         141.5898  144.4340  170.8793 H       1  UNL1        0.1232
     23 O         144.6801  142.6653  163.4048 O.3     1  UNL1       -0.4779
     24 C         143.8148  145.1086  163.2284 C.3     1  UNL1        0.0472
     25 C         143.8169  143.6923  162.7342 C.3     1  UNL1        0.1662
     26 C         142.9556  143.3032  161.5693 C.3     1  UNL1        0.0472
     27 N         139.6453  138.8717  161.4452 N.pl3   1  UNL1       -0.2961
     28 H         138.9951  138.8213  160.7076 H       1  UNL1        0.1537
     29 C         139.1676  138.8749  162.8671 C.ar    1  UNL1        0.0667
     30 C         139.2300  137.6172  163.6822 C.ar    1  UNL1        0.0159
     31 C         138.7523  137.6205  165.1040 C.ar    1  UNL1        0.0014
     32 C         138.2121  138.8814  165.7109 C.ar    1  UNL1        0.0014
     33 C         138.1497  140.1391  164.8959 C.ar    1  UNL1        0.0196
     34 C         138.6275  140.1359  163.4739 C.ar    1  UNL1        0.1189
     35 S         138.5651  141.3935  162.6589 S.O2    1  UNL1        0.0082
     36 O         137.2946  140.9164  162.0199 O.2     1  UNL1       -0.1686
     37 O         139.8355  141.8707  163.2978 O.2     1  UNL1       -0.1686
     38 C         138.5027  142.6512  161.8438 C.3     1  UNL1        0.1340
     39 C         138.2757  143.9717  162.5184 C.3     1  UNL1        0.0257
     40 C         138.6672  142.5886  160.3542 C.3     1  UNL1        0.0257
@<TRIPOS>BOND
     1    24    25    1
     2    25    26    1
     3    25    23    1
     4    23    10    1
     5    10    11   ar
     6    11    12   ar
     7    12    16    1
     8    16    17    1
     9    17    18    1
    10    18    19    1
    11    19    20    1
    12    20    21    1
    13    12    13   ar
    14    13    14   ar
    15    14    15   ar
    16    15     8    1
    17     8     1    1
    18     1     2   ar
    19     2     3   ar
    20     3     4   ar
    21     4     5    1
    22     4     6   ar
    23     6    27    1
    24    27    29    1
    25    29    30   ar
    26    30    31   ar
    27    31    32   ar
    28    32    33   ar
    29    33    34   ar
    30    34    35    1
    31    35    36    2
    32    35    37    2
    33    35    38    1
    34    38    39    1
    35    38    40    1
    36     6     7   ar
    37    15    10   ar
    38     7     1   ar
    39    21    16    1
    40    34    29   ar
    41    19    22    1
    42     8     9    1
    43    27    28    1
@<TRIPOS>MOLECULE
*****
 40 43 0 0 0
SMALL
GASTEIGER

@<TRIPOS>ATOM
      1 C         140.1787  138.5539  162.4873 C.ar    1  UNL1        0.2220
      2 N         139.9422  137.8289  161.1956 N.ar    1  UNL1       -0.2110
      3 C         139.8911  138.5925  159.9055 C.ar    1  UNL1        0.1160
      4 C         140.0764  140.0810  159.9072 C.ar    1  UNL1        0.1085
      5 CL        140.0253  140.8446  158.6171 Cl      1  UNL1       -0.0777
      6 C         140.3128  140.8059  161.1989 C.ar    1  UNL1        0.1472
      7 N         140.3639  140.0424  162.4890 N.ar    1  UNL1       -0.1976
      8 N         140.2298  137.7903  163.7774 N.pl3   1  UNL1       -0.2801
      9 H         140.2201  136.8059  163.7675 H       1  UNL1        0.1552
     10 C         141.6251  138.8188  165.7128 C.ar    1  UNL1        0.1514
     11 C         141.6909  139.5550  167.0179 C.ar    1  UNL1        0.0339
     12 C         140.4272  139.9992  167.6930 C.ar    1  UNL1       -0.0193
     13 C         139.0977  139.7071  167.0629 C.ar    1  UNL1       -0.0028
     14 C         139.0319  138.9708  165.7578 C.ar    1  UNL1        0.0174
     15 C         140.2956  138.5267  165.0827 C.ar    1  UNL1        0.0849
     16 C         140.4930  140.7356  168.9982 C.3     1  UNL1        0.0252
     17 C         140.1376  142.1917  169.0566 C.3     1  UNL1        0.0215
     18 C         140.2034  142.9280  170.3618 C.3     1  UNL1        0.0689
     19 N         140.6247  142.2082  171.6086 N.3     1  UNL1       -0.2974
     20 C         140.9802  140.7521  171.5502 C.3     1  UNL1        0.0689
     21 C         140.9144  140.0158  170.2450 C.3     1  UNL1        0.0215
     22 H         139.8567  142.2974  172.2739 H       1  UNL1        0.1232
     23 O         142.8888  138.3746  165.0377 O.3     1  UNL1       -0.4779
     24 C         143.9517  140.6713  164.4502 C.3     1  UNL1        0.0472
     25 C         143.5693  139.2768  164.0514 C.3     1  UNL1        0.1662
     26 C         143.8674  138.7845  162.6661 C.3     1  UNL1        0.0472
     27 N         140.4981  142.2945  161.2005 N.pl3   1  UNL1       -0.2961
     28 H         139.8326  142.8739  160.7640 H       1  UNL1        0.1537
     29 C         141.6974  142.9002  161.8674 C.ar    1  UNL1        0.0667
     30 C         143.0357  142.8516  161.1916 C.ar    1  UNL1        0.0159
     31 C         144.2351  143.4573  161.8585 C.ar    1  UNL1        0.0014
     32 C         144.0961  144.1118  163.2011 C.ar    1  UNL1        0.0014
     33 C         142.7578  144.1604  163.8768 C.ar    1  UNL1        0.0196
     34 C         141.5585  143.5546  163.2099 C.ar    1  UNL1        0.1189
     35 S         140.2202  143.6033  163.8856 S.O2    1  UNL1        0.0082
     36 O         140.6776  142.5646  164.8663 O.2     1  UNL1       -0.1686
     37 O         139.7627  144.6420  162.9048 O.2     1  UNL1       -0.1686
     38 C         138.8819  143.6520  164.5613 C.3     1  UNL1        0.1340
     39 C         137.8986  142.5373  164.3591 C.3     1  UNL1        0.0257
     40 C         138.5268  144.8152  165.4392 C.3     1  UNL1        0.0257
@<TRIPOS>BOND
     1    24    25    1
     2    25    26    1
     3    25    23    1
     4    23    10    1
     5    10    11   ar
     6    11    12   ar
     7    12    16    1
     8    16    17    1
     9    17    18    1
    10    18    19    1
    11    19    20    1
    12    20    21    1
    13    12    13   ar
    14    13    14   ar
    15    14    15   ar
    16    15     8    1
    17     8     1    1
    18     1     2   ar
    19     2     3   ar
    20     3     4   ar
    21     4     5    1
    22     4     6   ar
    23     6    27    1
    24    27    29    1
    25    29    30   ar
    26    30    31   ar
    27    31    32   ar
    28    32    33   ar
    29    33    34   ar
    30    34    35    1
    31    35    36    2
    32    35    37    2
    33    35    38    1
    34    38    39    1
    35    38    40    1
    36     6     7   ar
    37    15    10   ar
    38     7     1   ar
    39    21    16    1
    40    34    29   ar
    41    19    22    1
    42     8     9    1
    43    27    28    1
@<TRIPOS>MOLECULE
*****
 40 43 0 0 0
SMALL
GASTEIGER

@<TRIPOS>ATOM
      1 C         142.8795  143.2941  162.1580 C.ar    1  UNL1        0.2220
      2 N         142.9563  144.0165  160.8456 N.ar    1  UNL1       -0.2110
      3 C         142.8274  143.2533  159.5608 C.ar    1  UNL1        0.1160
      4 C         142.6218  141.7676  159.5883 C.ar    1  UNL1        0.1085
      5 CL        142.4929  141.0044  158.3035 Cl      1  UNL1       -0.0777
      6 C         142.5450  141.0453  160.9007 C.ar    1  UNL1        0.1472
      7 N         142.6739  141.8086  162.1855 N.ar    1  UNL1       -0.1976
      8 N         143.0084  144.0574  163.4429 N.pl3   1  UNL1       -0.2801
      9 H         143.3872  144.9661  163.4398 H       1  UNL1        0.1552
     10 C         141.1103  143.4672  165.1159 C.ar    1  UNL1        0.1514
     11 C         140.6621  142.8459  166.4055 C.ar    1  UNL1        0.0339
     12 C         141.6637  142.1935  167.3117 C.ar    1  UNL1       -0.0193
     13 C         143.1135  142.1623  166.9282 C.ar    1  UNL1       -0.0028
     14 C         143.5617  142.7836  165.6387 C.ar    1  UNL1        0.0174
     15 C         142.5601  143.4361  164.7325 C.ar    1  UNL1        0.0849
     16 C         141.2154  141.5722  168.6013 C.3     1  UNL1        0.0252
     17 C         139.8817  140.8905  168.6816 C.3     1  UNL1        0.0215
     18 C         139.4334  140.2692  169.9712 C.3     1  UNL1        0.0689
     19 N         140.3189  140.3295  171.1805 N.3     1  UNL1       -0.2974
     20 C         141.6526  141.0112  171.1002 C.3     1  UNL1        0.0689
     21 C         142.1009  141.6325  169.8105 C.3     1  UNL1        0.0215
     22 H         140.4973  139.3659  171.4632 H       1  UNL1        0.1232
     23 O         140.1087  144.1197  164.2098 O.3     1  UNL1       -0.4779
     24 C         137.6097  143.8812  163.5407 C.3     1  UNL1        0.0472
     25 C         138.9944  143.3095  163.6167 C.3     1  UNL1        0.1662
     26 C         139.2647  141.9276  163.0995 C.3     1  UNL1        0.0472
     27 N         142.3394  139.5597  160.9282 N.pl3   1  UNL1       -0.2961
     28 H         143.0238  138.9609  160.5511 H       1  UNL1        0.1537
     29 C         141.0910  138.9864  161.5305 C.ar    1  UNL1        0.0667
     30 C         139.8636  138.8102  160.6864 C.ar    1  UNL1        0.0159
     31 C         138.6152  138.2369  161.2886 C.ar    1  UNL1        0.0014
     32 C         138.5941  137.8398  162.7350 C.ar    1  UNL1        0.0014
     33 C         139.8215  138.0160  163.5791 C.ar    1  UNL1        0.0196
     34 C         141.0699  138.5893  162.9768 C.ar    1  UNL1        0.1189
     35 S         142.2973  138.7655  163.8208 S.O2    1  UNL1        0.0082
     36 O         143.0278  137.7729  162.9658 O.2     1  UNL1       -0.1686
     37 O         141.5668  139.7582  164.6759 O.2     1  UNL1       -0.1686
     38 C         143.5247  138.9418  164.6649 C.3     1  UNL1        0.1340
     39 C         143.5159  138.5084  166.1010 C.3     1  UNL1        0.0257
     40 C         144.7608  139.5513  164.0730 C.3     1  UNL1        0.0257
@<TRIPOS>BOND
     1    24    25    1
     2    25    26    1
     3    25    23    1
     4    23    10    1
     5    10    11   ar
     6    11    12   ar
     7    12    16    1
     8    16    17    1
     9    17    18    1
    10    18    19    1
    11    19    20    1
    12    20    21    1
    13    12    13   ar
    14    13    14   ar
    15    14    15   ar
    16    15     8    1
    17     8     1    1
    18     1     2   ar
    19     2     3   ar
    20     3     4   ar
    21     4     5    1
    22     4     6   ar
    23     6    27    1
    24    27    29    1
    25    29    30   ar
    26    30    31   ar
    27    31    32   ar
    28    32    33   ar
    29    33    34   ar
    30    34    35    1
    31    35    36    2
    32    35    37    2
    33    35    38    1
    34    38    39    1
    35    38    40    1
    36     6     7   ar
    37    15    10   ar
    38     7     1   ar
    39    21    16    1
    40    34    29   ar
    41    19    22    1
    42     8     9    1
    43    27    28    1
@<TRIPOS>MOLECULE
*****
 40 43 0 0 0
SMALL
GASTEIGER

@<TRIPOS>ATOM
      1 C         143.4317  138.7825  162.1576 C.ar    1  UNL1        0.2220
      2 N         144.0089  138.3450  160.8440 N.ar    1  UNL1       -0.2110
      3 C         143.1164  138.1837  159.6492 C.ar    1  UNL1        0.1160
      4 C         141.6468  138.4600  159.7680 C.ar    1  UNL1        0.1085
      5 CL        140.7544  138.2987  158.5732 Cl      1  UNL1       -0.0777
      6 C         141.0698  138.8975  161.0815 C.ar    1  UNL1        0.1472
      7 N         141.9622  139.0588  162.2764 N.ar    1  UNL1       -0.1976
      8 N         144.3241  138.9438  163.3524 N.pl3   1  UNL1       -0.2801
      9 H         145.2256  138.5481  163.3505 H       1  UNL1        0.1552
     10 C         143.8789  141.2076  164.5471 C.ar    1  UNL1        0.1514
     11 C         143.3979  141.9717  165.7448 C.ar    1  UNL1        0.0339
     12 C         142.8809  141.2364  166.9456 C.ar    1  UNL1       -0.0193
     13 C         142.8450  139.7368  166.9487 C.ar    1  UNL1       -0.0028
     14 C         143.3261  138.9727  165.7510 C.ar    1  UNL1        0.0174
     15 C         143.8430  139.7080  164.5502 C.ar    1  UNL1        0.0849
     16 C         142.3998  142.0006  168.1434 C.3     1  UNL1        0.0252
     17 C         140.9798  142.4799  168.2064 C.3     1  UNL1        0.0215
     18 C         140.4987  143.2441  169.4041 C.3     1  UNL1        0.0689
     19 N         141.4376  143.5291  170.5388 N.3     1  UNL1       -0.2974
     20 C         142.8575  143.0497  170.4757 C.3     1  UNL1        0.0689
     21 C         143.3386  142.2855  169.2780 C.3     1  UNL1        0.0215
     22 H         141.0239  143.1152  171.3743 H       1  UNL1        0.1232
     23 O         144.3959  141.9430  163.3463 O.3     1  UNL1       -0.4779
     24 C         142.2484  142.6915  162.0902 C.3     1  UNL1        0.0472
     25 C         143.5699  143.0251  162.7165 C.3     1  UNL1        0.1662
     26 C         144.0655  144.4409  162.7130 C.3     1  UNL1        0.0472
     27 N         139.6002  139.1738  161.2004 N.pl3   1  UNL1       -0.2961
     28 H         138.9499  138.4480  161.0600 H       1  UNL1        0.1537
     29 C         139.1213  140.5558  161.5330 C.ar    1  UNL1        0.0667
     30 C         138.9081  141.5594  160.4387 C.ar    1  UNL1        0.0159
     31 C         138.4293  142.9414  160.7714 C.ar    1  UNL1        0.0014
     32 C         138.1637  143.3199  162.1983 C.ar    1  UNL1        0.0014
     33 C         138.3769  142.3164  163.2926 C.ar    1  UNL1        0.0196
     34 C         138.8557  140.9343  162.9599 C.ar    1  UNL1        0.1189
     35 S         139.0689  139.9307  164.0542 S.O2    1  UNL1        0.0082
     36 O         137.9705  139.0803  163.4882 O.2     1  UNL1       -0.1686
     37 O         140.1673  140.7812  164.6202 O.2     1  UNL1       -0.1686
     38 C         139.2821  138.9272  165.1485 C.3     1  UNL1        0.1340
     39 C         139.9883  137.6367  164.8554 C.3     1  UNL1        0.0257
     40 C         138.7891  139.2141  166.5357 C.3     1  UNL1        0.0257
@<TRIPOS>BOND
     1    24    25    1
     2    25    26    1
     3    25    23    1
     4    23    10    1
     5    10    11   ar
     6    11    12   ar
     7    12    16    1
     8    16    17    1
     9    17    18    1
    10    18    19    1
    11    19    20    1
    12    20    21    1
    13    12    13   ar
    14    13    14   ar
    15    14    15   ar
    16    15     8    1
    17     8     1    1
    18     1     2   ar
    19     2     3   ar
    20     3     4   ar
    21     4     5    1
    22     4     6   ar
    23     6    27    1
    24    27    29    1
    25    29    30   ar
    26    30    31   ar
    27    31    32   ar
    28    32    33   ar
    29    33    34   ar
    30    34    35    1
    31    35    36    2
    32    35    37    2
    33    35    38    1
    34    38    39    1
    35    38    40    1
    36     6     7   ar
    37    15    10   ar
    38     7     1   ar
    39    21    16    1
    40    34    29   ar
    41    19    22    1
    42     8     9    1
    43    27    28    1
@<TRIPOS>MOLECULE
*****
 40 43 0 0 0
SMALL
GASTEIGER

@<TRIPOS>ATOM
      1 C         138.6533  142.2265  161.7651 C.ar    1  UNL1        0.2220
      2 N         138.1737  142.9638  160.5500 N.ar    1  UNL1       -0.2110
      3 C         138.9605  142.8993  159.2745 C.ar    1  UNL1        0.1160
      4 C         140.2269  142.0976  159.2142 C.ar    1  UNL1        0.1085
      5 CL        141.0136  142.0331  157.9387 Cl      1  UNL1       -0.0777
      6 C         140.7064  141.3604  160.4293 C.ar    1  UNL1        0.1472
      7 N         139.9197  141.4248  161.7048 N.ar    1  UNL1       -0.1976
      8 N         137.8666  142.2909  163.0406 N.pl3   1  UNL1       -0.2801
      9 H         136.9489  142.6473  163.0354 H       1  UNL1        0.1552
     10 C         139.3670  142.7239  165.1170 C.ar    1  UNL1        0.1514
     11 C         139.9785  142.2453  166.4003 C.ar    1  UNL1        0.0339
     12 C         139.7010  140.8551  166.8907 C.ar    1  UNL1       -0.0193
     13 C         138.8121  139.9436  166.0977 C.ar    1  UNL1       -0.0028
     14 C         138.2006  140.4222  164.8144 C.ar    1  UNL1        0.0174
     15 C         138.4781  141.8123  164.3240 C.ar    1  UNL1        0.0849
     16 C         140.3125  140.3765  168.1741 C.3     1  UNL1        0.0252
     17 C         141.7009  139.8086  168.1774 C.3     1  UNL1        0.0215
     18 C         142.3124  139.3300  169.4607 C.3     1  UNL1        0.0689
     19 N         141.5356  139.4194  170.7409 N.3     1  UNL1       -0.2974
     20 C         140.1473  139.9873  170.7376 C.3     1  UNL1        0.0689
     21 C         139.5358  140.4659  169.4542 C.3     1  UNL1        0.0215
     22 H         142.0865  139.9921  171.3802 H       1  UNL1        0.1232
     23 O         139.6445  144.1141  164.6266 O.3     1  UNL1       -0.4779
     24 C         142.0488  143.5411  163.8261 C.3     1  UNL1        0.0472
     25 C         140.8030  144.3682  163.7084 C.3     1  UNL1        0.1662
     26 C         140.7158  145.4495  162.6724 C.3     1  UNL1        0.0472
     27 N         141.9728  140.5587  160.3689 N.pl3   1  UNL1       -0.2961
     28 H         142.0667  139.8357  159.7073 H       1  UNL1        0.1537
     29 C         143.0962  140.8585  161.3166 C.ar    1  UNL1        0.0667
     30 C         144.1179  141.8985  160.9635 C.ar    1  UNL1        0.0159
     31 C         145.2413  142.1983  161.9111 C.ar    1  UNL1        0.0014
     32 C         145.3430  141.4583  163.2120 C.ar    1  UNL1        0.0014
     33 C         144.3213  140.4184  163.5650 C.ar    1  UNL1        0.0196
     34 C         143.1979  140.1185  162.6173 C.ar    1  UNL1        0.1189
     35 S         142.1762  139.0786  162.9704 S.O2    1  UNL1        0.0082
     36 O         141.7247  139.9159  164.1302 O.2     1  UNL1       -0.1686
     37 O         142.6276  138.2413  161.8106 O.2     1  UNL1       -0.1686
     38 C         141.1545  138.0386  163.3235 C.3     1  UNL1        0.1340
     39 C         140.0081  137.7678  162.3947 C.3     1  UNL1        0.0257
     40 C         141.2791  137.2696  164.6053 C.3     1  UNL1        0.0257
@<TRIPOS>BOND
     1    24    25    1
     2    25    26    1
     3    25    23    1
     4    23    10    1
     5    10    11   ar
     6    11    12   ar
     7    12    16    1
     8    16    17    1
     9    17    18    1
    10    18    19    1
    11    19    20    1
    12    20    21    1
    13    12    13   ar
    14    13    14   ar
    15    14    15   ar
    16    15     8    1
    17     8     1    1
    18     1     2   ar
    19     2     3   ar
    20     3     4   ar
    21     4     5    1
    22     4     6   ar
    23     6    27    1
    24    27    29    1
    25    29    30   ar
    26    30    31   ar
    27    31    32   ar
    28    32    33   ar
    29    33    34   ar
    30    34    35    1
    31    35    36    2
    32    35    37    2
    33    35    38    1
    34    38    39    1
    35    38    40    1
    36     6     7   ar
    37    15    10   ar
    38     7     1   ar
    39    21    16    1
    40    34    29   ar
    41    19    22    1
    42     8     9    1
    43    27    28    1
@<TRIPOS>MOLECULE
*****
 40 43 0 0 0
SMALL
GASTEIGER

@<TRIPOS>ATOM
      1 C         141.3648  138.6225  162.3905 C.ar    1  UNL1        0.2220
      2 N         141.0837  137.8943  161.1096 N.ar    1  UNL1       -0.2110
      3 C         140.8751  138.6644  159.8393 C.ar    1  UNL1        0.1160
      4 C         140.9476  140.1626  159.8501 C.ar    1  UNL1        0.1085
      5 CL        140.7390  140.9327  158.5798 Cl      1  UNL1       -0.0777
      6 C         141.2286  140.8907  161.1310 C.ar    1  UNL1        0.1472
      7 N         141.4372  140.1207  162.4012 N.ar    1  UNL1       -0.1976
      8 N         141.5734  137.8525  163.6608 N.pl3   1  UNL1       -0.2801
      9 H         141.6587  136.8720  163.6337 H       1  UNL1        0.1552
     10 C         140.3970  139.0490  165.6444 C.ar    1  UNL1        0.1514
     11 C         140.4756  139.7727  166.9558 C.ar    1  UNL1        0.0339
     12 C         141.8091  140.0237  167.5953 C.ar    1  UNL1       -0.0193
     13 C         143.0639  139.5509  166.9232 C.ar    1  UNL1       -0.0028
     14 C         142.9854  138.8272  165.6118 C.ar    1  UNL1        0.0174
     15 C         141.6519  138.5762  164.9723 C.ar    1  UNL1        0.0849
     16 C         141.8876  140.7475  168.9068 C.3     1  UNL1        0.0252
     17 C         142.7685  141.9535  169.0463 C.3     1  UNL1        0.0215
     18 C         142.8470  142.6773  170.3577 C.3     1  UNL1        0.0689
     19 N         142.0447  142.1950  171.5298 N.3     1  UNL1       -0.2974
     20 C         141.1638  140.9889  171.3903 C.3     1  UNL1        0.0689
     21 C         141.0853  140.2652  170.0788 C.3     1  UNL1        0.0215
     22 H         141.4426  142.9682  171.8127 H       1  UNL1        0.1232
     23 O         139.0635  138.7981  165.0049 O.3     1  UNL1       -0.4779
     24 C         138.1667  141.2301  164.8288 C.3     1  UNL1        0.0472
     25 C         138.3962  139.8822  164.2118 C.3     1  UNL1        0.1662
     26 C         137.9582  139.6186  162.8015 C.3     1  UNL1        0.0472
     27 N         141.3011  142.3890  161.1417 N.pl3   1  UNL1       -0.2961
     28 H         141.8937  142.8577  160.5106 H       1  UNL1        0.1537
     29 C         140.4706  143.1731  162.1141 C.ar    1  UNL1        0.0667
     30 C         139.0319  143.4654  161.8065 C.ar    1  UNL1        0.0159
     31 C         138.2014  144.2495  162.7788 C.ar    1  UNL1        0.0014
     32 C         138.8096  144.7413  164.0588 C.ar    1  UNL1        0.0014
     33 C         140.2484  144.4490  164.3663 C.ar    1  UNL1        0.0196
     34 C         141.0789  143.6649  163.3939 C.ar    1  UNL1        0.1189
     35 S         142.5176  143.3726  163.7015 S.O2    1  UNL1        0.0082
     36 O         142.0967  142.5269  164.8666 O.2     1  UNL1       -0.1686
     37 O         142.9385  144.2184  162.5363 O.2     1  UNL1       -0.1686
     38 C         143.9563  143.0803  164.0090 C.3     1  UNL1        0.1340
     39 C         144.8673  142.5783  162.9282 C.3     1  UNL1        0.0257
     40 C         144.4841  143.2901  165.3973 C.3     1  UNL1        0.0257
@<TRIPOS>BOND
     1    24    25    1
     2    25    26    1
     3    25    23    1
     4    23    10    1
     5    10    11   ar
     6    11    12   ar
     7    12    16    1
     8    16    17    1
     9    17    18    1
    10    18    19    1
    11    19    20    1
    12    20    21    1
    13    12    13   ar
    14    13    14   ar
    15    14    15   ar
    16    15     8    1
    17     8     1    1
    18     1     2   ar
    19     2     3   ar
    20     3     4   ar
    21     4     5    1
    22     4     6   ar
    23     6    27    1
    24    27    29    1
    25    29    30   ar
    26    30    31   ar
    27    31    32   ar
    28    32    33   ar
    29    33    34   ar
    30    34    35    1
    31    35    36    2
    32    35    37    2
    33    35    38    1
    34    38    39    1
    35    38    40    1
    36     6     7   ar
    37    15    10   ar
    38     7     1   ar
    39    21    16    1
    40    34    29   ar
    41    19    22    1
    42     8     9    1
    43    27    28    1
@<TRIPOS>MOLECULE
*****
 40 43 0 0 0
SMALL
GASTEIGER

@<TRIPOS>ATOM
      1 C         139.8393  138.5807  162.6453 C.ar    1  UNL1        0.2220
      2 N         139.6016  137.8056  161.3832 N.ar    1  UNL1       -0.2110
      3 C         139.3246  138.5298  160.0992 C.ar    1  UNL1        0.1160
      4 C         139.2853  140.0292  160.0772 C.ar    1  UNL1        0.1085
      5 CL        139.0083  140.7535  158.7932 Cl      1  UNL1       -0.0777
      6 C         139.5230  140.8042  161.3393 C.ar    1  UNL1        0.1472
      7 N         139.8000  140.0800  162.6233 N.ar    1  UNL1       -0.1976
      8 N         140.1163  137.8564  163.9293 N.pl3   1  UNL1       -0.2801
      9 H         140.0580  136.8742  163.9629 H       1  UNL1        0.1552
     10 C         141.9247  138.8322  165.5192 C.ar    1  UNL1        0.1514
     11 C         142.2904  139.6045  166.7520 C.ar    1  UNL1        0.0339
     12 C         141.2136  140.1732  167.6277 C.ar    1  UNL1       -0.0193
     13 C         139.7710  139.9698  167.2707 C.ar    1  UNL1       -0.0028
     14 C         139.4053  139.1975  166.0379 C.ar    1  UNL1        0.0174
     15 C         140.4821  138.6287  165.1621 C.ar    1  UNL1        0.0849
     16 C         141.5794  140.9455  168.8606 C.3     1  UNL1        0.0252
     17 C         142.6231  142.0206  168.7900 C.3     1  UNL1        0.0215
     18 C         142.9889  142.7928  170.0227 C.3     1  UNL1        0.0689
     19 N         142.3110  142.4901  171.3262 N.3     1  UNL1       -0.2974
     20 C         141.2673  141.4151  171.3968 C.3     1  UNL1        0.0689
     21 C         140.9015  140.6428  170.1639 C.3     1  UNL1        0.0215
     22 H         141.8649  143.3543  171.6337 H       1  UNL1        0.1232
     23 O         143.0015  138.2635  164.6435 O.3     1  UNL1       -0.4779
     24 C         144.7293  140.1402  164.1511 C.3     1  UNL1        0.0472
     25 C         143.7164  139.1467  163.6643 C.3     1  UNL1        0.1662
     26 C         143.4185  139.0363  162.1983 C.3     1  UNL1        0.0472
     27 N         139.4837  142.3036  161.3173 N.pl3   1  UNL1       -0.2961
     28 H         139.6195  142.7873  160.4706 H       1  UNL1        0.1537
     29 C         139.2375  143.0661  162.5854 C.ar    1  UNL1        0.0667
     30 C         137.8498  143.1589  163.1473 C.ar    1  UNL1        0.0159
     31 C         137.6036  143.9213  164.4154 C.ar    1  UNL1        0.0014
     32 C         138.7451  144.5910  165.1215 C.ar    1  UNL1        0.0014
     33 C         140.1327  144.4982  164.5596 C.ar    1  UNL1        0.0196
     34 C         140.3789  143.7357  163.2915 C.ar    1  UNL1        0.1189
     35 S         141.7666  143.6429  162.7295 S.O2    1  UNL1        0.0082
     36 O         141.5134  144.8680  161.9019 O.2     1  UNL1       -0.1686
     37 O         142.0198  142.4178  163.5572 O.2     1  UNL1       -0.1686
     38 C         143.1543  143.5501  162.1676 C.3     1  UNL1        0.1340
     39 C         144.2786  144.3004  162.8180 C.3     1  UNL1        0.0257
     40 C         143.4176  142.7070  160.9553 C.3     1  UNL1        0.0257
@<TRIPOS>BOND
     1    24    25    1
     2    25    26    1
     3    25    23    1
     4    23    10    1
     5    10    11   ar
     6    11    12   ar
     7    12    16    1
     8    16    17    1
     9    17    18    1
    10    18    19    1
    11    19    20    1
    12    20    21    1
    13    12    13   ar
    14    13    14   ar
    15    14    15   ar
    16    15     8    1
    17     8     1    1
    18     1     2   ar
    19     2     3   ar
    20     3     4   ar
    21     4     5    1
    22     4     6   ar
    23     6    27    1
    24    27    29    1
    25    29    30   ar
    26    30    31   ar
    27    31    32   ar
    28    32    33   ar
    29    33    34   ar
    30    34    35    1
    31    35    36    2
    32    35    37    2
    33    35    38    1
    34    38    39    1
    35    38    40    1
    36     6     7   ar
    37    15    10   ar
    38     7     1   ar
    39    21    16    1
    40    34    29   ar
    41    19    22    1
    42     8     9    1
    43    27    28    1
