@<TRIPOS>MOLECULE
*****
 33 35 0 0 0
SMALL
GASTEIGER

@<TRIPOS>ATOM
      1 N         140.4474  145.0571  158.8629 N.ar    1  UNL1       -0.2480
      2 C         141.1295  145.4388  160.1431 C.ar    1  UNL1        0.0966
      3 C         140.5667  144.5851  161.2406 C.ar    1  UNL1        0.0393
      4 C         140.8590  144.5182  162.7103 C.ar    1  UNL1        0.0175
      5 C         140.1213  143.5421  163.5781 C.ar    1  UNL1        0.0488
      6 C         139.0913  142.6328  162.9761 C.ar    1  UNL1        0.0168
      7 C         138.7990  142.6997  161.5063 C.ar    1  UNL1        0.0201
      8 C         139.5367  143.6758  160.6386 C.ar    1  UNL1        0.1022
      9 N         139.4630  143.9676  159.1691 N.ar    1  UNL1       -0.1692
     10 C         138.3537  141.6567  163.8438 C.3     1  UNL1        0.1083
     11 C         139.2757  140.5616  163.3958 C.3     1  UNL1        0.0339
     12 C         137.4316  142.7517  164.2918 C.3     1  UNL1        0.0339
     13 O         137.6160  140.6805  164.7115 O.3     1  UNL1       -0.3826
     14 H         138.0192  139.8025  164.6255 H       1  UNL1        0.2107
     15 N         140.4136  143.4752  165.0478 N.am    1  UNL1       -0.2793
     16 C         141.5723  142.6631  165.5459 C.2     1  UNL1        0.2672
     17 O         142.4386  141.9179  164.5743 O.2     1  UNL1       -0.2682
     18 H         139.8450  143.9643  165.6855 H       1  UNL1        0.1552
     19 C         141.8646  142.5962  167.0156 C.ar    1  UNL1        0.1347
     20 C         143.2360  142.2179  167.4910 C.ar    1  UNL1        0.0238
     21 C         143.5283  142.1511  168.9608 C.ar    1  UNL1        0.0032
     22 C         142.4492  142.4625  169.9550 C.ar    1  UNL1        0.0231
     23 C         141.0778  142.8409  169.4795 C.ar    1  UNL1        0.1527
     24 N         140.7854  142.9077  168.0098 N.ar    1  UNL1       -0.2368
     25 C         139.9986  143.1523  170.4738 C.3     1  UNL1        0.4348
     26 F         138.9195  143.4637  171.4681 F       1  UNL1       -0.1644
     27 F         140.0672  144.6019  170.0943 F       1  UNL1       -0.1644
     28 F         139.9300  141.7028  170.8533 F       1  UNL1       -0.1644
     29 C         140.7045  145.6593  157.5133 C.3     1  UNL1        0.1448
     30 C         139.7619  146.6856  156.9580 C.3     1  UNL1        0.0988
     31 C         138.2201  145.5972  155.1724 C.3     1  UNL1        0.0897
     32 N         139.2918  146.5813  155.5375 N.3     1  UNL1       -0.2686
     33 C         139.8932  147.4611  154.4819 C.3     1  UNL1        0.0897
@<TRIPOS>BOND
     1    31    32    1
     2    32    33    1
     3    32    30    1
     4    30    29    1
     5    29     1    1
     6     1     2   ar
     7     2     3   ar
     8     3     4   ar
     9     4     5   ar
    10     5    15    1
    11    15    16   am
    12    16    17    2
    13    16    19    1
    14    19    20   ar
    15    20    21   ar
    16    21    22   ar
    17    22    23   ar
    18    23    25    1
    19    25    26    1
    20    25    27    1
    21    25    28    1
    22    23    24   ar
    23     5     6   ar
    24     6    10    1
    25    10    11    1
    26    10    12    1
    27    10    13    1
    28     6     7   ar
    29     7     8   ar
    30     8     9   ar
    31     9     1   ar
    32     8     3   ar
    33    24    19   ar
    34    15    18    1
    35    13    14    1
@<TRIPOS>MOLECULE
*****
 33 35 0 0 0
SMALL
GASTEIGER

@<TRIPOS>ATOM
      1 N         141.1857  138.6463  159.0746 N.ar    1  UNL1       -0.2480
      2 C         142.1088  139.2366  160.0990 C.ar    1  UNL1        0.0966
      3 C         141.3956  139.2396  161.4186 C.ar    1  UNL1        0.0393
      4 C         141.8119  139.7021  162.7835 C.ar    1  UNL1        0.0175
      5 C         140.8643  139.5762  163.9395 C.ar    1  UNL1        0.0488
      6 C         139.5004  138.9878  163.7305 C.ar    1  UNL1        0.0168
      7 C         139.0841  138.5253  162.3656 C.ar    1  UNL1        0.0201
      8 C         140.0317  138.6512  161.2097 C.ar    1  UNL1        0.1022
      9 N         139.9020  138.2846  159.7610 N.ar    1  UNL1       -0.1692
     10 C         138.5528  138.8619  164.8864 C.3     1  UNL1        0.1083
     11 C         138.0219  140.2354  164.6008 C.3     1  UNL1        0.0339
     12 C         139.0837  137.4884  165.1721 C.3     1  UNL1        0.0339
     13 O         137.6052  138.7361  166.0423 O.3     1  UNL1       -0.3826
     14 H         137.0772  139.5463  166.1174 H       1  UNL1        0.2107
     15 N         141.2805  140.0387  165.3043 N.am    1  UNL1       -0.2793
     16 C         141.2164  141.4959  165.6543 C.2     1  UNL1        0.2672
     17 O         140.7360  142.4906  164.6395 O.2     1  UNL1       -0.2682
     18 H         141.5958  139.3859  165.9703 H       1  UNL1        0.1552
     19 C         141.6327  141.9584  167.0191 C.ar    1  UNL1        0.1347
     20 C         143.0874  142.0158  167.3802 C.ar    1  UNL1        0.0238
     21 C         143.5037  142.4784  168.7451 C.ar    1  UNL1        0.0032
     22 C         142.4652  142.8834  169.7488 C.ar    1  UNL1        0.0231
     23 C         141.0105  142.8260  169.3877 C.ar    1  UNL1        0.1527
     24 N         140.5942  142.3635  168.0229 N.ar    1  UNL1       -0.2368
     25 C         139.9720  143.2311  170.3915 C.3     1  UNL1        0.4348
     26 F         138.9335  143.6361  171.3952 F       1  UNL1       -0.1644
     27 F         140.3370  144.6716  170.1878 F       1  UNL1       -0.1644
     28 F         139.6070  141.7905  170.5952 F       1  UNL1       -0.1644
     29 C         141.4925  138.4520  157.6192 C.3     1  UNL1        0.1448
     30 C         142.2955  137.2659  157.1738 C.3     1  UNL1        0.0988
     31 C         143.7797  138.8173  155.7108 C.3     1  UNL1        0.0897
     32 N         143.4125  137.4436  156.1885 N.3     1  UNL1       -0.2686
     33 C         144.1622  136.2477  155.6810 C.3     1  UNL1        0.0897
@<TRIPOS>BOND
     1    31    32    1
     2    32    33    1
     3    32    30    1
     4    30    29    1
     5    29     1    1
     6     1     2   ar
     7     2     3   ar
     8     3     4   ar
     9     4     5   ar
    10     5    15    1
    11    15    16   am
    12    16    17    2
    13    16    19    1
    14    19    20   ar
    15    20    21   ar
    16    21    22   ar
    17    22    23   ar
    18    23    25    1
    19    25    26    1
    20    25    27    1
    21    25    28    1
    22    23    24   ar
    23     5     6   ar
    24     6    10    1
    25    10    11    1
    26    10    12    1
    27    10    13    1
    28     6     7   ar
    29     7     8   ar
    30     8     9   ar
    31     9     1   ar
    32     8     3   ar
    33    24    19   ar
    34    15    18    1
    35    13    14    1
@<TRIPOS>MOLECULE
*****
 33 35 0 0 0
SMALL
GASTEIGER

@<TRIPOS>ATOM
      1 N         139.6744  145.4767  156.4073 N.ar    1  UNL1       -0.2480
      2 C         139.5124  144.0397  156.8058 C.ar    1  UNL1        0.0966
      3 C         139.8058  143.9295  158.2727 C.ar    1  UNL1        0.0393
      4 C         139.8047  142.7595  159.2113 C.ar    1  UNL1        0.0175
      5 C         140.1470  142.9583  160.6582 C.ar    1  UNL1        0.0488
      6 C         140.4904  144.3272  161.1663 C.ar    1  UNL1        0.0168
      7 C         140.4915  145.4973  160.2276 C.ar    1  UNL1        0.0201
      8 C         140.1492  145.2984  158.7808 C.ar    1  UNL1        0.1022
      9 N         140.0680  146.2546  157.6280 N.ar    1  UNL1       -0.1692
     10 C         140.8327  144.5261  162.6131 C.3     1  UNL1        0.1083
     11 C         139.4062  144.8899  162.9006 C.3     1  UNL1        0.0339
     12 C         142.2593  144.1624  162.3256 C.3     1  UNL1        0.0339
     13 O         141.1750  144.7250  164.0599 O.3     1  UNL1       -0.3826
     14 H         140.3791  144.9897  164.5470 H       1  UNL1        0.2107
     15 N         140.1459  141.7884  161.5968 N.am    1  UNL1       -0.2793
     16 C         138.8562  141.3040  162.1901 C.2     1  UNL1        0.2672
     17 O         137.5676  141.9896  161.8448 O.2     1  UNL1       -0.2682
     18 H         140.9917  141.3383  161.8235 H       1  UNL1        0.1552
     19 C         138.8551  140.1340  163.1287 C.ar    1  UNL1        0.1347
     20 C         138.9633  138.7389  162.5884 C.ar    1  UNL1        0.0238
     21 C         138.9622  137.5689  163.5271 C.ar    1  UNL1        0.0032
     22 C         138.8529  137.7940  165.0061 C.ar    1  UNL1        0.0231
     23 C         138.7447  139.1891  165.5464 C.ar    1  UNL1        0.1527
     24 N         138.7458  140.3591  164.6078 N.ar    1  UNL1       -0.2368
     25 C         138.6353  139.4142  167.0254 C.3     1  UNL1        0.4348
     26 F         138.5261  139.6393  168.5044 F       1  UNL1       -0.1644
     27 F         137.2956  138.7397  167.0291 F       1  UNL1       -0.1644
     28 F         139.9751  140.0887  167.0217 F       1  UNL1       -0.1644
     29 C         139.4774  146.0374  155.0301 C.3     1  UNL1        0.1448
     30 C         140.3096  147.1958  154.5658 C.3     1  UNL1        0.0988
     31 C         138.8263  149.1305  155.4642 C.3     1  UNL1        0.0897
     32 N         139.6799  148.5444  154.3789 N.3     1  UNL1       -0.2686
     33 C         139.9039  149.3068  153.1067 C.3     1  UNL1        0.0897
@<TRIPOS>BOND
     1    31    32    1
     2    32    33    1
     3    32    30    1
     4    30    29    1
     5    29     1    1
     6     1     2   ar
     7     2     3   ar
     8     3     4   ar
     9     4     5   ar
    10     5    15    1
    11    15    16   am
    12    16    17    2
    13    16    19    1
    14    19    20   ar
    15    20    21   ar
    16    21    22   ar
    17    22    23   ar
    18    23    25    1
    19    25    26    1
    20    25    27    1
    21    25    28    1
    22    23    24   ar
    23     5     6   ar
    24     6    10    1
    25    10    11    1
    26    10    12    1
    27    10    13    1
    28     6     7   ar
    29     7     8   ar
    30     8     9   ar
    31     9     1   ar
    32     8     3   ar
    33    24    19   ar
    34    15    18    1
    35    13    14    1
@<TRIPOS>MOLECULE
*****
 33 35 0 0 0
SMALL
GASTEIGER

@<TRIPOS>ATOM
      1 N         142.9931  138.1040  159.0280 N.ar    1  UNL1       -0.2480
      2 C         142.6529  137.5657  160.3861 C.ar    1  UNL1        0.0966
      3 C         143.0302  138.6016  161.4032 C.ar    1  UNL1        0.0393
      4 C         142.9258  138.6240  162.8994 C.ar    1  UNL1        0.0175
      5 C         143.3947  139.8250  163.6661 C.ar    1  UNL1        0.0488
      6 C         143.9681  141.0035  162.9366 C.ar    1  UNL1        0.0168
      7 C         144.0726  140.9811  161.4404 C.ar    1  UNL1        0.0201
      8 C         143.6037  139.7802  160.6737 C.ar    1  UNL1        0.1022
      9 N         143.5807  139.4726  159.2058 N.ar    1  UNL1       -0.1692
     10 C         144.4371  142.2045  163.7033 C.3     1  UNL1        0.1083
     11 C         145.7838  141.5673  163.8776 C.3     1  UNL1        0.0339
     12 C         143.0904  142.8416  163.5289 C.3     1  UNL1        0.0339
     13 O         144.9060  143.4054  164.4699 O.3     1  UNL1       -0.3826
     14 H         145.8282  143.2758  164.7415 H       1  UNL1        0.2107
     15 N         143.2902  139.8473  165.1623 N.am    1  UNL1       -0.2793
     16 C         141.9930  140.2176  165.8181 C.2     1  UNL1        0.2672
     17 O         140.8003  140.5656  164.9777 O.2     1  UNL1       -0.2682
     18 H         144.0731  139.6190  165.7138 H       1  UNL1        0.1552
     19 C         141.8885  140.2400  167.3142 C.ar    1  UNL1        0.1347
     20 C         142.6092  139.2095  168.1319 C.ar    1  UNL1        0.0238
     21 C         142.5047  139.2319  169.6281 C.ar    1  UNL1        0.0032
     22 C         141.6795  140.2848  170.3066 C.ar    1  UNL1        0.0231
     23 C         140.9588  141.3153  169.4890 C.ar    1  UNL1        0.1527
     24 N         141.0633  141.2930  167.9928 N.ar    1  UNL1       -0.2368
     25 C         140.1336  142.3683  170.1675 C.3     1  UNL1        0.4348
     26 F         139.3085  143.4212  170.8461 F       1  UNL1       -0.1644
     27 F         138.9733  141.4197  170.2285 F       1  UNL1       -0.1644
     28 F         141.2940  143.3169  170.1066 F       1  UNL1       -0.1644
     29 C         142.7827  137.3977  157.7215 C.3     1  UNL1        0.1448
     30 C         142.9925  135.9154  157.6280 C.3     1  UNL1        0.0988
     31 C         143.8138  133.8408  156.2970 C.3     1  UNL1        0.0897
     32 N         143.6733  135.3286  156.4271 N.3     1  UNL1       -0.2686
     33 C         144.2137  136.2294  155.3565 C.3     1  UNL1        0.0897
@<TRIPOS>BOND
     1    31    32    1
     2    32    33    1
     3    32    30    1
     4    30    29    1
     5    29     1    1
     6     1     2   ar
     7     2     3   ar
     8     3     4   ar
     9     4     5   ar
    10     5    15    1
    11    15    16   am
    12    16    17    2
    13    16    19    1
    14    19    20   ar
    15    20    21   ar
    16    21    22   ar
    17    22    23   ar
    18    23    25    1
    19    25    26    1
    20    25    27    1
    21    25    28    1
    22    23    24   ar
    23     5     6   ar
    24     6    10    1
    25    10    11    1
    26    10    12    1
    27    10    13    1
    28     6     7   ar
    29     7     8   ar
    30     8     9   ar
    31     9     1   ar
    32     8     3   ar
    33    24    19   ar
    34    15    18    1
    35    13    14    1
@<TRIPOS>MOLECULE
*****
 33 35 0 0 0
SMALL
GASTEIGER

@<TRIPOS>ATOM
      1 N         144.0866  142.4250  158.4678 N.ar    1  UNL1       -0.2480
      2 C         144.0609  141.4511  159.6083 C.ar    1  UNL1        0.0966
      3 C         143.2283  142.0444  160.7059 C.ar    1  UNL1        0.0393
      4 C         142.8522  141.5371  162.0665 C.ar    1  UNL1        0.0175
      5 C         141.9871  142.3705  162.9649 C.ar    1  UNL1        0.0488
      6 C         141.4982  143.7112  162.5028 C.ar    1  UNL1        0.0168
      7 C         141.8744  144.2184  161.1422 C.ar    1  UNL1        0.0201
      8 C         142.7394  143.3851  160.2438 C.ar    1  UNL1        0.1022
      9 N         143.2698  143.6203  158.8605 N.ar    1  UNL1       -0.1692
     10 C         140.6332  144.5445  163.4012 C.3     1  UNL1        0.1083
     11 C         141.8407  145.3115  163.8523 C.3     1  UNL1        0.0339
     12 C         139.4257  143.7775  162.9501 C.3     1  UNL1        0.0339
     13 O         139.7681  145.3779  164.2996 O.3     1  UNL1       -0.3826
     14 H         140.3179  146.0252  164.7683 H       1  UNL1        0.2107
     15 N         141.6110  141.8632  164.3255 N.am    1  UNL1       -0.2793
     16 C         142.5582  142.0304  165.4766 C.2     1  UNL1        0.2672
     17 O         143.8814  142.7050  165.2671 O.2     1  UNL1       -0.2682
     18 H         140.7425  141.4205  164.4630 H       1  UNL1        0.1552
     19 C         142.1821  141.5232  166.8371 C.ar    1  UNL1        0.1347
     20 C         142.6270  140.1605  167.2789 C.ar    1  UNL1        0.0238
     21 C         142.2508  139.6532  168.6395 C.ar    1  UNL1        0.0032
     22 C         141.4298  140.5086  169.5583 C.ar    1  UNL1        0.0231
     23 C         140.9849  141.8713  169.1165 C.ar    1  UNL1        0.1527
     24 N         141.3610  142.3786  167.7560 N.ar    1  UNL1       -0.2368
     25 C         140.1639  142.7267  170.0354 C.3     1  UNL1        0.4348
     26 F         139.3428  143.5820  170.9542 F       1  UNL1       -0.1644
     27 F         141.1699  143.8316  169.9058 F       1  UNL1       -0.1644
     28 F         139.1578  141.6217  170.1650 F       1  UNL1       -0.1644
     29 C         144.8032  142.2367  157.1635 C.3     1  UNL1        0.1448
     30 C         146.2946  142.3829  157.0993 C.3     1  UNL1        0.0988
     31 C         148.3982  141.8868  155.6575 C.3     1  UNL1        0.0897
     32 N         146.9907  142.3930  155.7706 N.3     1  UNL1       -0.2686
     33 C         146.2794  142.9094  154.5552 C.3     1  UNL1        0.0897
@<TRIPOS>BOND
     1    31    32    1
     2    32    33    1
     3    32    30    1
     4    30    29    1
     5    29     1    1
     6     1     2   ar
     7     2     3   ar
     8     3     4   ar
     9     4     5   ar
    10     5    15    1
    11    15    16   am
    12    16    17    2
    13    16    19    1
    14    19    20   ar
    15    20    21   ar
    16    21    22   ar
    17    22    23   ar
    18    23    25    1
    19    25    26    1
    20    25    27    1
    21    25    28    1
    22    23    24   ar
    23     5     6   ar
    24     6    10    1
    25    10    11    1
    26    10    12    1
    27    10    13    1
    28     6     7   ar
    29     7     8   ar
    30     8     9   ar
    31     9     1   ar
    32     8     3   ar
    33    24    19   ar
    34    15    18    1
    35    13    14    1
@<TRIPOS>MOLECULE
*****
 33 35 0 0 0
SMALL
GASTEIGER

@<TRIPOS>ATOM
      1 N         140.5612  139.9696  168.9494 N.ar    1  UNL1       -0.2480
      2 C         141.5770  140.3684  167.9203 C.ar    1  UNL1        0.0966
      3 C         140.8758  140.4910  166.6000 C.ar    1  UNL1        0.0393
      4 C         141.3697  140.8551  165.2312 C.ar    1  UNL1        0.0175
      5 C         140.4144  140.8962  164.0755 C.ar    1  UNL1        0.0488
      6 C         138.9652  140.5732  164.2885 C.ar    1  UNL1        0.0168
      7 C         138.4713  140.2091  165.6573 C.ar    1  UNL1        0.0201
      8 C         139.4266  140.1680  166.8130 C.ar    1  UNL1        0.1022
      9 N         139.2321  139.8457  168.2650 N.ar    1  UNL1       -0.1692
     10 C         138.0098  140.6143  163.1328 C.3     1  UNL1        0.1083
     11 C         138.3313  139.1838  162.8162 C.3     1  UNL1        0.0339
     12 C         137.6883  142.0448  163.4494 C.3     1  UNL1        0.0339
     13 O         137.0545  140.6554  161.9772 O.3     1  UNL1       -0.3826
     14 H         137.0446  139.7920  161.5350 H       1  UNL1        0.2107
     15 N         140.9083  141.2603  162.7067 N.am    1  UNL1       -0.2793
     16 C         141.2710  142.6817  162.3938 C.2     1  UNL1        0.2672
     17 O         141.1397  143.7391  163.4496 O.2     1  UNL1       -0.2682
     18 H         140.9944  140.5663  162.0138 H       1  UNL1        0.1552
     19 C         141.7649  143.0458  161.0251 C.ar    1  UNL1        0.1347
     20 C         142.9470  142.3317  160.4398 C.ar    1  UNL1        0.0238
     21 C         143.4409  142.6959  159.0710 C.ar    1  UNL1        0.0032
     22 C         142.7527  143.7740  158.2875 C.ar    1  UNL1        0.0231
     23 C         141.5705  144.4881  158.8728 C.ar    1  UNL1        0.1527
     24 N         141.0766  144.1241  160.2416 N.ar    1  UNL1       -0.2368
     25 C         140.8823  145.5664  158.0893 C.3     1  UNL1        0.4348
     26 F         140.1941  146.6446  157.3059 F       1  UNL1       -0.1644
     27 F         139.5752  144.8481  158.2489 F       1  UNL1       -0.1644
     28 F         142.1894  146.2847  157.9297 F       1  UNL1       -0.1644
     29 C         140.8276  139.7356  170.4069 C.3     1  UNL1        0.1448
     30 C         141.0829  140.8989  171.3188 C.3     1  UNL1        0.0988
     31 C         142.4817  142.9112  170.4563 C.3     1  UNL1        0.0897
     32 N         141.1509  142.2892  170.7599 N.3     1  UNL1       -0.2686
     33 C         139.8882  143.0575  170.5045 C.3     1  UNL1        0.0897
@<TRIPOS>BOND
     1    31    32    1
     2    32    33    1
     3    32    30    1
     4    30    29    1
     5    29     1    1
     6     1     2   ar
     7     2     3   ar
     8     3     4   ar
     9     4     5   ar
    10     5    15    1
    11    15    16   am
    12    16    17    2
    13    16    19    1
    14    19    20   ar
    15    20    21   ar
    16    21    22   ar
    17    22    23   ar
    18    23    25    1
    19    25    26    1
    20    25    27    1
    21    25    28    1
    22    23    24   ar
    23     5     6   ar
    24     6    10    1
    25    10    11    1
    26    10    12    1
    27    10    13    1
    28     6     7   ar
    29     7     8   ar
    30     8     9   ar
    31     9     1   ar
    32     8     3   ar
    33    24    19   ar
    34    15    18    1
    35    13    14    1
@<TRIPOS>MOLECULE
*****
 33 35 0 0 0
SMALL
GASTEIGER

@<TRIPOS>ATOM
      1 N         142.0247  138.2157  158.3943 N.ar    1  UNL1       -0.2480
      2 C         141.1030  138.4829  159.5471 C.ar    1  UNL1        0.0966
      3 C         141.8989  139.1434  160.6335 C.ar    1  UNL1        0.0393
      4 C         141.5190  139.6346  161.9989 C.ar    1  UNL1        0.0175
      5 C         142.5528  140.2670  162.8830 C.ar    1  UNL1        0.0488
      6 C         143.9664  140.4081  162.4016 C.ar    1  UNL1        0.0168
      7 C         144.3462  139.9168  161.0361 C.ar    1  UNL1        0.0201
      8 C         143.3125  139.2845  160.1521 C.ar    1  UNL1        0.1022
      9 N         143.3902  138.7112  158.7682 N.ar    1  UNL1       -0.1692
     10 C         145.0002  141.0404  163.2856 C.3     1  UNL1        0.1083
     11 C         144.8407  142.3354  162.5457 C.3     1  UNL1        0.0339
     12 C         145.1596  139.7454  164.0254 C.3     1  UNL1        0.0339
     13 O         146.0339  141.6727  164.1696 O.3     1  UNL1       -0.3826
     14 H         146.1595  142.5986  163.9090 H       1  UNL1        0.2107
     15 N         142.1729  140.7582  164.2484 N.am    1  UNL1       -0.2793
     16 C         141.8162  139.7775  165.3259 C.2     1  UNL1        0.2672
     17 O         141.8394  138.3056  165.0380 O.2     1  UNL1       -0.2682
     18 H         142.1577  141.7243  164.4374 H       1  UNL1        0.1552
     19 C         141.4364  140.2687  166.6913 C.ar    1  UNL1        0.1347
     20 C         140.0774  139.9622  167.2474 C.ar    1  UNL1        0.0238
     21 C         139.6976  140.4535  168.6129 C.ar    1  UNL1        0.0032
     22 C         140.6766  141.2512  169.4222 C.ar    1  UNL1        0.0231
     23 C         142.0356  141.5577  168.8661 C.ar    1  UNL1        0.1527
     24 N         142.4155  141.0665  167.5007 N.ar    1  UNL1       -0.2368
     25 C         143.0147  142.3555  169.6754 C.3     1  UNL1        0.4348
     26 F         143.9938  143.1532  170.4847 F       1  UNL1       -0.1644
     27 F         142.1985  142.1059  170.9089 F       1  UNL1       -0.1644
     28 F         143.8309  142.6050  168.4419 F       1  UNL1       -0.1644
     29 C         141.6471  137.5671  157.0955 C.3     1  UNL1        0.1448
     30 C         142.6395  136.7074  156.3702 C.3     1  UNL1        0.0988
     31 C         143.2735  134.3440  157.2434 C.3     1  UNL1        0.0897
     32 N         142.4591  135.2186  156.3369 N.3     1  UNL1       -0.2686
     33 C         141.4644  134.6046  155.3970 C.3     1  UNL1        0.0897
@<TRIPOS>BOND
     1    31    32    1
     2    32    33    1
     3    32    30    1
     4    30    29    1
     5    29     1    1
     6     1     2   ar
     7     2     3   ar
     8     3     4   ar
     9     4     5   ar
    10     5    15    1
    11    15    16   am
    12    16    17    2
    13    16    19    1
    14    19    20   ar
    15    20    21   ar
    16    21    22   ar
    17    22    23   ar
    18    23    25    1
    19    25    26    1
    20    25    27    1
    21    25    28    1
    22    23    24   ar
    23     5     6   ar
    24     6    10    1
    25    10    11    1
    26    10    12    1
    27    10    13    1
    28     6     7   ar
    29     7     8   ar
    30     8     9   ar
    31     9     1   ar
    32     8     3   ar
    33    24    19   ar
    34    15    18    1
    35    13    14    1
@<TRIPOS>MOLECULE
*****
 33 35 0 0 0
SMALL
GASTEIGER

@<TRIPOS>ATOM
      1 N         143.4542  142.6902  158.0454 N.ar    1  UNL1       -0.2480
      2 C         143.7916  142.2877  159.4505 C.ar    1  UNL1        0.0966
      3 C         142.6218  142.6307  160.3245 C.ar    1  UNL1        0.0393
      4 C         142.3852  142.4629  161.7962 C.ar    1  UNL1        0.0175
      5 C         141.0881  142.9096  162.4030 C.ar    1  UNL1        0.0488
      6 C         140.0277  143.5240  161.5381 C.ar    1  UNL1        0.0168
      7 C         140.2644  143.6918  160.0664 C.ar    1  UNL1        0.0201
      8 C         141.5614  143.2451  159.4596 C.ar    1  UNL1        0.1022
      9 N         142.0759  143.2819  158.0511 N.ar    1  UNL1       -0.1692
     10 C         138.7307  143.9706  162.1449 C.3     1  UNL1        0.1083
     11 C         138.1311  142.6273  161.8519 C.3     1  UNL1        0.0339
     12 C         139.3304  145.3140  162.4379 C.3     1  UNL1        0.0339
     13 O         137.4337  144.4173  162.7517 O.3     1  UNL1       -0.3826
     14 H         136.7885  143.6945  162.7038 H       1  UNL1        0.2107
     15 N         140.8515  142.7418  163.8747 N.am    1  UNL1       -0.2793
     16 C         140.5736  141.3801  164.4392 C.2     1  UNL1        0.2672
     17 O         140.5323  140.1863  163.5321 O.2     1  UNL1       -0.2682
     18 H         140.8786  143.5254  164.4701 H       1  UNL1        0.1552
     19 C         140.3370  141.2123  165.9108 C.ar    1  UNL1        0.1347
     20 C         139.4692  140.0946  166.4083 C.ar    1  UNL1        0.0238
     21 C         139.2326  139.9268  167.8801 C.ar    1  UNL1        0.0032
     22 C         139.8638  140.8768  168.8542 C.ar    1  UNL1        0.0231
     23 C         140.7316  141.9946  168.3568 C.ar    1  UNL1        0.1527
     24 N         140.9682  142.1624  166.8851 N.ar    1  UNL1       -0.2368
     25 C         141.3628  142.9446  169.3310 C.3     1  UNL1        0.4348
     26 F         141.9940  143.8945  170.3053 F       1  UNL1       -0.1644
     27 F         140.1102  143.7697  169.3381 F       1  UNL1       -0.1644
     28 F         142.6154  142.1195  169.3239 F       1  UNL1       -0.1644
     29 C         144.3397  142.5292  156.8454 C.3     1  UNL1        0.1448
     30 C         145.6117  141.7414  156.9522 C.3     1  UNL1        0.0988
     31 C         147.5030  143.2213  157.9436 C.3     1  UNL1        0.0897
     32 N         146.9355  142.4305  156.8022 N.3     1  UNL1       -0.2686
     33 C         147.6919  142.3288  155.5109 C.3     1  UNL1        0.0897
@<TRIPOS>BOND
     1    31    32    1
     2    32    33    1
     3    32    30    1
     4    30    29    1
     5    29     1    1
     6     1     2   ar
     7     2     3   ar
     8     3     4   ar
     9     4     5   ar
    10     5    15    1
    11    15    16   am
    12    16    17    2
    13    16    19    1
    14    19    20   ar
    15    20    21   ar
    16    21    22   ar
    17    22    23   ar
    18    23    25    1
    19    25    26    1
    20    25    27    1
    21    25    28    1
    22    23    24   ar
    23     5     6   ar
    24     6    10    1
    25    10    11    1
    26    10    12    1
    27    10    13    1
    28     6     7   ar
    29     7     8   ar
    30     8     9   ar
    31     9     1   ar
    32     8     3   ar
    33    24    19   ar
    34    15    18    1
    35    13    14    1
@<TRIPOS>MOLECULE
*****
 33 35 0 0 0
SMALL
GASTEIGER

@<TRIPOS>ATOM
      1 N         140.2179  139.9043  168.9292 N.ar    1  UNL1       -0.2480
      2 C         141.2678  140.2748  167.9240 C.ar    1  UNL1        0.0966
      3 C         140.6782  140.1080  166.5549 C.ar    1  UNL1        0.0393
      4 C         141.2464  140.3263  165.1840 C.ar    1  UNL1        0.0175
      5 C         140.4002  140.0708  163.9720 C.ar    1  UNL1        0.0488
      6 C         138.9859  139.5971  164.1310 C.ar    1  UNL1        0.0168
      7 C         138.4177  139.3789  165.5020 C.ar    1  UNL1        0.0201
      8 C         139.2638  139.6344  166.7139 C.ar    1  UNL1        0.1022
      9 N         138.9794  139.5084  168.1813 N.ar    1  UNL1       -0.1692
     10 C         138.1398  139.3417  162.9190 C.3     1  UNL1        0.1083
     11 C         137.6648  140.7641  162.9509 C.3     1  UNL1        0.0339
     12 C         138.6148  137.9193  162.8872 C.3     1  UNL1        0.0339
     13 O         137.2937  139.0862  161.7071 O.3     1  UNL1       -0.3826
     14 H         136.8217  139.8984  161.4653 H       1  UNL1        0.2107
     15 N         140.9685  140.2891  162.6010 N.am    1  UNL1       -0.2793
     16 C         141.9770  139.3277  162.0454 C.2     1  UNL1        0.2672
     17 O         142.4173  138.1482  162.8607 O.2     1  UNL1       -0.2682
     18 H         140.6795  141.0633  162.0659 H       1  UNL1        0.1552
     19 C         142.5452  139.5460  160.6745 C.ar    1  UNL1        0.1347
     20 C         143.3544  140.7754  160.3850 C.ar    1  UNL1        0.0238
     21 C         143.9226  140.9936  159.0140 C.ar    1  UNL1        0.0032
     22 C         143.6816  139.9824  157.9326 C.ar    1  UNL1        0.0231
     23 C         142.8724  138.7531  158.2221 C.ar    1  UNL1        0.1527
     24 N         142.3042  138.5348  159.5930 N.ar    1  UNL1       -0.2368
     25 C         142.6314  137.7419  157.1406 C.3     1  UNL1        0.4348
     26 F         142.3905  136.7308  156.0591 F       1  UNL1       -0.1644
     27 F         142.9036  136.6346  158.1152 F       1  UNL1       -0.1644
     28 F         142.3593  138.8492  156.1660 F       1  UNL1       -0.1644
     29 C         140.3784  139.9257  170.4204 C.3     1  UNL1        0.1448
     30 C         141.3057  140.9156  171.0608 C.3     1  UNL1        0.0988
     31 C         139.9425  143.0673  170.5487 C.3     1  UNL1        0.0897
     32 N         141.2604  142.3584  170.6530 N.3     1  UNL1       -0.2686
     33 C         142.5328  143.0923  170.3495 C.3     1  UNL1        0.0897
@<TRIPOS>BOND
     1    31    32    1
     2    32    33    1
     3    32    30    1
     4    30    29    1
     5    29     1    1
     6     1     2   ar
     7     2     3   ar
     8     3     4   ar
     9     4     5   ar
    10     5    15    1
    11    15    16   am
    12    16    17    2
    13    16    19    1
    14    19    20   ar
    15    20    21   ar
    16    21    22   ar
    17    22    23   ar
    18    23    25    1
    19    25    26    1
    20    25    27    1
    21    25    28    1
    22    23    24   ar
    23     5     6   ar
    24     6    10    1
    25    10    11    1
    26    10    12    1
    27    10    13    1
    28     6     7   ar
    29     7     8   ar
    30     8     9   ar
    31     9     1   ar
    32     8     3   ar
    33    24    19   ar
    34    15    18    1
    35    13    14    1
