@<TRIPOS>MOLECULE
*****
 31 34 0 0 0
SMALL
GASTEIGER

@<TRIPOS>ATOM
      1 N         143.4915  139.9348  163.4761 N.3     1  UNL1       -0.2727
      2 C         142.1643  139.2361  163.4844 C.3     1  UNL1        0.0725
      3 C         141.2909  139.2996  164.7023 C.3     1  UNL1        0.0232
      4 C         141.7449  140.0618  165.9118 C.3     1  UNL1        0.0430
      5 C         143.0721  140.7606  165.9035 C.3     1  UNL1        0.0232
      6 C         143.9455  140.6971  164.6856 C.3     1  UNL1        0.0725
      7 C         142.0635  140.7815  167.1887 C.3     1  UNL1        0.1053
      8 N         140.9151  140.5813  168.1327 N.am    1  UNL1       -0.2280
      9 C         140.8130  141.1284  169.5256 C.2     1  UNL1        0.3121
     10 O         139.5969  140.8433  170.3561 O.2     1  UNL1       -0.2520
     11 N         141.9270  141.9606  170.0880 N.am    1  UNL1       -0.2602
     12 C         141.8249  142.5077  171.4809 C.3     1  UNL1        0.1165
     13 C         143.1432  142.2457  169.2575 C.3     1  UNL1        0.1165
     14 C         139.8867  139.7377  167.4392 C.ar    1  UNL1        0.1345
     15 N         138.5495  139.2205  167.8801 N.ar    1  UNL1       -0.2291
     16 C         137.7252  138.3823  166.9486 C.ar    1  UNL1        0.1003
     17 C         138.2380  138.0612  165.5760 C.ar    1  UNL1        0.0204
     18 C         139.5752  138.5785  165.1350 C.ar    1  UNL1        0.0001
     19 C         140.3995  139.4167  166.0666 C.ar    1  UNL1        0.0109
     20 C         144.3649  139.8714  162.2582 C.3     1  UNL1        0.0722
     21 C         142.1213  137.8925  157.0572 C.2     1  UNL1        0.4049
     22 O         141.8434  138.8590  155.9441 O.2     1  UNL1       -0.2262
     23 N         142.6822  138.3873  158.3574 N.am    1  UNL1       -0.2460
     24 C         142.9601  137.4209  159.4705 C.3     1  UNL1        0.0968
     25 C         143.5210  137.9156  160.7708 C.3     1  UNL1        0.0231
     26 C         143.8040  139.3767  160.9580 C.3     1  UNL1        0.0194
     27 C         143.5262  140.3431  159.8449 C.3     1  UNL1        0.0231
     28 C         142.9653  139.8484  158.5447 C.3     1  UNL1        0.0968
     29 O         141.8383  136.4314  156.8700 O.3     1  UNL1       -0.4345
     30 C         144.1000  136.1320  155.6271 C.3     1  UNL1        0.0513
     31 C         142.7693  135.5858  156.0526 C.3     1  UNL1        0.2102
@<TRIPOS>BOND
     1    30    31    1
     2    31    29    1
     3    29    21    1
     4    21    22    2
     5    21    23   am
     6    23    24    1
     7    24    25    1
     8    25    26    1
     9    26    20    1
    10    20     1    1
    11     1     2    1
    12     2     3    1
    13     3     4    1
    14     4     5    1
    15     5     6    1
    16     4     7    1
    17     7     8    1
    18     8     9   am
    19     9    10    2
    20     9    11   am
    21    11    12    1
    22    11    13    1
    23     8    14    1
    24    14    15   ar
    25    15    16   ar
    26    16    17   ar
    27    17    18   ar
    28    18    19   ar
    29    26    27    1
    30    27    28    1
    31    28    23    1
    32     6     1    1
    33    19    14   ar
    34    19     4    1
@<TRIPOS>MOLECULE
*****
 31 34 0 0 0
SMALL
GASTEIGER

@<TRIPOS>ATOM
      1 N         143.5547  139.4967  162.1317 N.3     1  UNL1       -0.2727
      2 C         142.2996  140.2953  161.9395 C.3     1  UNL1        0.0725
      3 C         141.4095  140.0219  160.7636 C.3     1  UNL1        0.0232
      4 C         141.7745  138.9500  159.7798 C.3     1  UNL1        0.0430
      5 C         143.0296  138.1515  159.9720 C.3     1  UNL1        0.0232
      6 C         143.9197  138.4249  161.1479 C.3     1  UNL1        0.0725
      7 C         142.0080  137.9157  158.7188 C.3     1  UNL1        0.1053
      8 N         140.8723  137.9894  157.7416 N.am    1  UNL1       -0.2280
      9 C         140.7020  137.1336  156.5215 C.2     1  UNL1        0.3121
     10 O         139.5084  137.3231  155.6332 O.2     1  UNL1       -0.2520
     11 N         141.7253  136.0882  156.1900 N.am    1  UNL1       -0.2602
     12 C         141.5550  135.2323  154.9699 C.3     1  UNL1        0.1165
     13 C         142.9190  135.8987  157.0784 C.3     1  UNL1        0.1165
     14 C         139.9369  139.0694  158.1986 C.ar    1  UNL1        0.1345
     15 N         138.6495  139.5888  157.6306 N.ar    1  UNL1       -0.2291
     16 C         137.9197  140.7019  158.3221 C.ar    1  UNL1        0.1003
     17 C         138.4772  141.2956  159.5818 C.ar    1  UNL1        0.0204
     18 C         139.7646  140.7761  160.1499 C.ar    1  UNL1        0.0001
     19 C         140.4945  139.6630  159.4583 C.ar    1  UNL1        0.0109
     20 C         144.4449  139.7701  163.3077 C.3     1  UNL1        0.0722
     21 C         142.0614  140.5386  168.7600 C.2     1  UNL1        0.4049
     22 O         141.8483  139.3567  169.6588 O.2     1  UNL1       -0.2262
     23 N         142.6573  140.3465  167.3970 N.am    1  UNL1       -0.2460
     24 C         142.8703  141.5283  166.4982 C.3     1  UNL1        0.0968
     25 C         143.4663  141.3362  165.1351 C.3     1  UNL1        0.0231
     26 C         143.8491  139.9622  164.6708 C.3     1  UNL1        0.0194
     27 C         143.6359  138.7803  165.5696 C.3     1  UNL1        0.0231
     28 C         143.0401  138.9725  166.9326 C.3     1  UNL1        0.0968
     29 O         141.6786  141.9126  169.2243 O.3     1  UNL1       -0.4345
     30 C         144.1170  142.4861  169.9138 C.3     1  UNL1        0.0513
     31 C         142.6414  142.7241  170.0396 C.3     1  UNL1        0.2102
@<TRIPOS>BOND
     1    30    31    1
     2    31    29    1
     3    29    21    1
     4    21    22    2
     5    21    23   am
     6    23    24    1
     7    24    25    1
     8    25    26    1
     9    26    20    1
    10    20     1    1
    11     1     2    1
    12     2     3    1
    13     3     4    1
    14     4     5    1
    15     5     6    1
    16     4     7    1
    17     7     8    1
    18     8     9   am
    19     9    10    2
    20     9    11   am
    21    11    12    1
    22    11    13    1
    23     8    14    1
    24    14    15   ar
    25    15    16   ar
    26    16    17   ar
    27    17    18   ar
    28    18    19   ar
    29    26    27    1
    30    27    28    1
    31    28    23    1
    32     6     1    1
    33    19    14   ar
    34    19     4    1
@<TRIPOS>MOLECULE
*****
 31 34 0 0 0
SMALL
GASTEIGER

@<TRIPOS>ATOM
      1 N         140.5457  139.8718  163.2391 N.3     1  UNL1       -0.2727
      2 C         140.2837  141.3041  163.5993 C.3     1  UNL1        0.0725
      3 C         140.2145  142.3473  162.5238 C.3     1  UNL1        0.0232
      4 C         140.4074  141.9582  161.0880 C.3     1  UNL1        0.0430
      5 C         140.6694  140.5259  160.7278 C.3     1  UNL1        0.0232
      6 C         140.7386  139.4827  161.8034 C.3     1  UNL1        0.0725
      7 C         140.5792  141.7206  159.6169 C.3     1  UNL1        0.1053
      8 N         140.4322  143.0378  158.9143 N.am    1  UNL1       -0.2280
      9 C         140.5307  143.2637  157.4347 C.2     1  UNL1        0.3121
     10 O         140.3606  144.6444  156.8739 O.2     1  UNL1       -0.2520
     11 N         140.7991  142.1088  156.5160 N.am    1  UNL1       -0.2602
     12 C         140.8975  142.3347  155.0364 C.3     1  UNL1        0.1165
     13 C         140.9691  140.7280  157.0769 C.3     1  UNL1        0.1165
     14 C         140.1696  144.0894  159.9513 C.ar    1  UNL1        0.1345
     15 N         139.9424  145.5684  159.8458 N.ar    1  UNL1       -0.2291
     16 C         139.6999  146.3800  161.0836 C.ar    1  UNL1        0.1003
     17 C         139.6845  145.7129  162.4270 C.ar    1  UNL1        0.0204
     18 C         139.9117  144.2339  162.5325 C.ar    1  UNL1        0.0001
     19 C         140.1542  143.4222  161.2946 C.ar    1  UNL1        0.0109
     20 C         140.6149  138.8285  164.3147 C.3     1  UNL1        0.0722
     21 C         139.2192  140.2558  169.9729 C.2     1  UNL1        0.4049
     22 O         137.8222  140.0447  170.4769 O.2     1  UNL1       -0.2262
     23 N         139.5681  139.8989  168.5583 N.am    1  UNL1       -0.2460
     24 C         140.9650  140.1100  168.0544 C.3     1  UNL1        0.0968
     25 C         141.3140  139.7532  166.6398 C.3     1  UNL1        0.0231
     26 C         140.2660  139.1853  165.7293 C.3     1  UNL1        0.0194
     27 C         138.8690  138.9742  166.2333 C.3     1  UNL1        0.0231
     28 C         138.5201  139.3310  167.6478 C.3     1  UNL1        0.0968
     29 O         140.2672  140.8237  170.8834 O.3     1  UNL1       -0.4345
     30 C         140.2960  143.2154  169.8690 C.3     1  UNL1        0.0513
     31 C         140.3817  142.3088  171.0609 C.3     1  UNL1        0.2102
@<TRIPOS>BOND
     1    30    31    1
     2    31    29    1
     3    29    21    1
     4    21    22    2
     5    21    23   am
     6    23    24    1
     7    24    25    1
     8    25    26    1
     9    26    20    1
    10    20     1    1
    11     1     2    1
    12     2     3    1
    13     3     4    1
    14     4     5    1
    15     5     6    1
    16     4     7    1
    17     7     8    1
    18     8     9   am
    19     9    10    2
    20     9    11   am
    21    11    12    1
    22    11    13    1
    23     8    14    1
    24    14    15   ar
    25    15    16   ar
    26    16    17   ar
    27    17    18   ar
    28    18    19   ar
    29    26    27    1
    30    27    28    1
    31    28    23    1
    32     6     1    1
    33    19    14   ar
    34    19     4    1
@<TRIPOS>MOLECULE
*****
 31 34 0 0 0
SMALL
GASTEIGER

@<TRIPOS>ATOM
      1 N         139.0880  139.4591  162.4728 N.3     1  UNL1       -0.2727
      2 C         139.9561  140.6802  162.5452 C.3     1  UNL1        0.0725
      3 C         139.9316  141.6848  161.4316 C.3     1  UNL1        0.0232
      4 C         139.0391  141.4683  160.2456 C.3     1  UNL1        0.0430
      5 C         138.1710  140.2472  160.1732 C.3     1  UNL1        0.0232
      6 C         138.1955  139.2425  161.2868 C.3     1  UNL1        0.0725
      7 C         138.2024  141.3873  159.0033 C.3     1  UNL1        0.1053
      8 N         138.4932  142.5993  158.1686 N.am    1  UNL1       -0.2280
      9 C         137.8760  142.9242  156.8407 C.2     1  UNL1        0.3121
     10 O         138.2671  144.1796  156.1189 O.2     1  UNL1       -0.2520
     11 N         136.8677  141.9937  156.2346 N.am    1  UNL1       -0.2602
     12 C         136.2505  142.3186  154.9067 C.3     1  UNL1        0.1165
     13 C         136.4766  140.7383  156.9564 C.3     1  UNL1        0.1165
     14 C         139.5097  143.4294  158.8952 C.ar    1  UNL1        0.1345
     15 N         140.1717  144.7314  158.5538 N.ar    1  UNL1       -0.2291
     16 C         141.1710  145.3344  159.4960 C.ar    1  UNL1        0.1003
     17 C         141.5084  144.6354  160.7796 C.ar    1  UNL1        0.0204
     18 C         140.8464  143.3334  161.1210 C.ar    1  UNL1        0.0001
     19 C         139.8471  142.7304  160.1788 C.ar    1  UNL1        0.0109
     20 C         139.1124  138.4543  163.5864 C.3     1  UNL1        0.0722
     21 C         139.4774  140.2993  169.2840 C.2     1  UNL1        0.4049
     22 O         138.3401  140.0459  170.2287 O.2     1  UNL1       -0.2262
     23 N         139.3861  139.8380  167.8596 N.am    1  UNL1       -0.2460
     24 C         140.5234  140.0914  166.9149 C.3     1  UNL1        0.0968
     25 C         140.4322  139.6302  165.4905 C.3     1  UNL1        0.0231
     26 C         139.2037  138.9156  165.0107 C.3     1  UNL1        0.0194
     27 C         138.0664  138.6622  165.9555 C.3     1  UNL1        0.0231
     28 C         138.1576  139.1234  167.3799 C.3     1  UNL1        0.0968
     29 O         140.7059  141.0139  169.7637 O.3     1  UNL1       -0.4345
     30 C         142.4242  139.0714  169.9202 C.3     1  UNL1        0.0513
     31 C         141.7561  140.2672  170.5316 C.3     1  UNL1        0.2102
@<TRIPOS>BOND
     1    30    31    1
     2    31    29    1
     3    29    21    1
     4    21    22    2
     5    21    23   am
     6    23    24    1
     7    24    25    1
     8    25    26    1
     9    26    20    1
    10    20     1    1
    11     1     2    1
    12     2     3    1
    13     3     4    1
    14     4     5    1
    15     5     6    1
    16     4     7    1
    17     7     8    1
    18     8     9   am
    19     9    10    2
    20     9    11   am
    21    11    12    1
    22    11    13    1
    23     8    14    1
    24    14    15   ar
    25    15    16   ar
    26    16    17   ar
    27    17    18   ar
    28    18    19   ar
    29    26    27    1
    30    27    28    1
    31    28    23    1
    32     6     1    1
    33    19    14   ar
    34    19     4    1
@<TRIPOS>MOLECULE
*****
 31 34 0 0 0
SMALL
GASTEIGER

@<TRIPOS>ATOM
      1 N         140.7060  144.7094  162.4718 N.3     1  UNL1       -0.2727
      2 C         141.7935  143.7890  162.0027 C.3     1  UNL1        0.0725
      3 C         142.1704  143.7520  160.5513 C.3     1  UNL1        0.0232
      4 C         141.4598  144.6353  159.5691 C.3     1  UNL1        0.0430
      5 C         140.3722  145.5556  160.0382 C.3     1  UNL1        0.0232
      6 C         139.9953  145.5927  161.4896 C.3     1  UNL1        0.0725
      7 C         140.8414  145.4559  158.4763 C.3     1  UNL1        0.1053
      8 N         141.5207  145.0989  157.1874 N.am    1  UNL1       -0.2280
      9 C         141.2154  145.6810  155.8391 C.2     1  UNL1        0.3121
     10 O         141.9820  145.2236  154.6337 O.2     1  UNL1       -0.2520
     11 N         140.1435  146.7205  155.6962 N.am    1  UNL1       -0.2602
     12 C         139.8382  147.3025  154.3479 C.3     1  UNL1        0.1165
     13 C         139.3769  147.1779  156.9017 C.3     1  UNL1        0.1165
     14 C         142.5590  144.0575  157.4837 C.ar    1  UNL1        0.1345
     15 N         143.5338  143.3331  156.6033 N.ar    1  UNL1       -0.2291
     16 C         144.4708  142.3223  157.1948 C.ar    1  UNL1        0.1003
     17 C         144.4332  142.0357  158.6667 C.ar    1  UNL1        0.0204
     18 C         143.4584  142.7601  159.5471 C.ar    1  UNL1        0.0001
     19 C         142.5213  143.7710  158.9555 C.ar    1  UNL1        0.0109
     20 C         140.3290  144.7465  163.9232 C.3     1  UNL1        0.0722
     21 C         138.8749  139.6723  166.7759 C.2     1  UNL1        0.4049
     22 O         139.3430  139.4419  168.1823 O.2     1  UNL1       -0.2262
     23 N         139.2385  140.9408  166.0627 N.am    1  UNL1       -0.2460
     24 C         138.7704  141.1711  164.6564 C.3     1  UNL1        0.0968
     25 C         139.1339  142.4397  163.9432 C.3     1  UNL1        0.0231
     26 C         139.9655  143.4780  164.6364 C.3     1  UNL1        0.0194
     27 C         140.4336  143.2476  166.0428 C.3     1  UNL1        0.0231
     28 C         140.0701  141.9791  166.7559 C.3     1  UNL1        0.0968
     29 O         138.0434  138.6341  166.0827 O.3     1  UNL1       -0.4345
     30 C         138.9671  137.6458  163.8645 C.3     1  UNL1        0.0513
     31 C         138.7087  137.5158  165.3363 C.3     1  UNL1        0.2102
@<TRIPOS>BOND
     1    30    31    1
     2    31    29    1
     3    29    21    1
     4    21    22    2
     5    21    23   am
     6    23    24    1
     7    24    25    1
     8    25    26    1
     9    26    20    1
    10    20     1    1
    11     1     2    1
    12     2     3    1
    13     3     4    1
    14     4     5    1
    15     5     6    1
    16     4     7    1
    17     7     8    1
    18     8     9   am
    19     9    10    2
    20     9    11   am
    21    11    12    1
    22    11    13    1
    23     8    14    1
    24    14    15   ar
    25    15    16   ar
    26    16    17   ar
    27    17    18   ar
    28    18    19   ar
    29    26    27    1
    30    27    28    1
    31    28    23    1
    32     6     1    1
    33    19    14   ar
    34    19     4    1
@<TRIPOS>MOLECULE
*****
 31 34 0 0 0
SMALL
GASTEIGER

@<TRIPOS>ATOM
      1 N         142.5777  138.7445  158.6438 N.3     1  UNL1       -0.2727
      2 C         143.6538  139.5357  159.3265 C.3     1  UNL1        0.0725
      3 C         143.4944  139.9341  160.7637 C.3     1  UNL1        0.0232
      4 C         142.2589  139.5414  161.5183 C.3     1  UNL1        0.0430
      5 C         141.1828  138.7502  160.8356 C.3     1  UNL1        0.0232
      6 C         141.3422  138.3518  159.3984 C.3     1  UNL1        0.0725
      7 C         141.0855  139.2226  162.3967 C.3     1  UNL1        0.1053
      8 N         141.3464  139.8128  163.7509 N.am    1  UNL1       -0.2280
      9 C         140.4330  139.7334  164.9381 C.2     1  UNL1        0.3121
     10 O         140.8302  140.3753  166.2342 O.2     1  UNL1       -0.2520
     11 N         139.1224  139.0120  164.8291 N.am    1  UNL1       -0.2602
     12 C         138.2090  138.9326  166.0163 C.3     1  UNL1        0.1165
     13 C         138.7252  138.3700  163.5329 C.3     1  UNL1        0.1165
     14 C         142.6810  140.4963  163.7094 C.ar    1  UNL1        0.1345
     15 N         143.4556  141.2497  164.7498 N.ar    1  UNL1       -0.2291
     16 C         144.7940  141.8354  164.4104 C.ar    1  UNL1        0.1003
     17 C         145.3581  141.6677  163.0305 C.ar    1  UNL1        0.0204
     18 C         144.5835  140.9143  161.9902 C.ar    1  UNL1        0.0001
     19 C         143.2450  140.3286  162.3297 C.ar    1  UNL1        0.0109
     20 C         142.7370  138.3460  157.2064 C.3     1  UNL1        0.0722
     21 C         141.8092  132.6542  155.5505 C.2     1  UNL1        0.4049
     22 O         140.8254  132.3405  154.4624 O.2     1  UNL1       -0.2262
     23 N         142.0411  134.0772  155.9645 N.am    1  UNL1       -0.2460
     24 C         143.0248  134.3908  157.0526 C.3     1  UNL1        0.0968
     25 C         143.2568  135.8138  157.4666 C.3     1  UNL1        0.0231
     26 C         142.5051  136.9231  156.7925 C.3     1  UNL1        0.0194
     27 C         141.5213  136.6094  155.7044 C.3     1  UNL1        0.0231
     28 C         141.2894  135.1865  155.2904 C.3     1  UNL1        0.0968
     29 O         142.5609  131.5450  156.2246 O.3     1  UNL1       -0.4345
     30 C         145.1558  131.5097  156.3495 C.3     1  UNL1        0.0513
     31 C         143.8819  131.0927  155.6762 C.3     1  UNL1        0.2102
@<TRIPOS>BOND
     1    30    31    1
     2    31    29    1
     3    29    21    1
     4    21    22    2
     5    21    23   am
     6    23    24    1
     7    24    25    1
     8    25    26    1
     9    26    20    1
    10    20     1    1
    11     1     2    1
    12     2     3    1
    13     3     4    1
    14     4     5    1
    15     5     6    1
    16     4     7    1
    17     7     8    1
    18     8     9   am
    19     9    10    2
    20     9    11   am
    21    11    12    1
    22    11    13    1
    23     8    14    1
    24    14    15   ar
    25    15    16   ar
    26    16    17   ar
    27    17    18   ar
    28    18    19   ar
    29    26    27    1
    30    27    28    1
    31    28    23    1
    32     6     1    1
    33    19    14   ar
    34    19     4    1
@<TRIPOS>MOLECULE
*****
 31 34 0 0 0
SMALL
GASTEIGER

@<TRIPOS>ATOM
      1 N         142.8261  135.2034  156.4786 N.3     1  UNL1       -0.2727
      2 C         143.6176  134.2164  157.2843 C.3     1  UNL1        0.0725
      3 C         143.4544  132.7456  157.0391 C.3     1  UNL1        0.0232
      4 C         142.4997  132.2619  155.9881 C.3     1  UNL1        0.0430
      5 C         141.7082  133.2489  155.1824 C.3     1  UNL1        0.0232
      6 C         141.8714  134.7197  155.4276 C.3     1  UNL1        0.0725
      7 C         141.5881  131.6325  154.9767 C.3     1  UNL1        0.1053
      8 N         141.7444  130.1438  155.0747 N.am    1  UNL1       -0.2280
      9 C         141.0198  129.1247  154.2463 C.2     1  UNL1        0.3121
     10 O         141.2807  127.6629  154.4582 O.2     1  UNL1       -0.2520
     11 N         140.0342  129.5675  153.2058 N.am    1  UNL1       -0.2602
     12 C         139.3096  128.5484  152.3774 C.3     1  UNL1        0.1165
     13 C         139.7732  131.0293  152.9938 C.3     1  UNL1        0.1165
     14 C         142.7526  129.8532  156.1468 C.ar    1  UNL1        0.1345
     15 N         143.3059  128.5658  156.6818 N.ar    1  UNL1       -0.2291
     16 C         144.3260  128.5873  157.7813 C.ar    1  UNL1        0.1003
     17 C         144.7928  129.8963  158.3458 C.ar    1  UNL1        0.0204
     18 C         144.2395  131.1838  157.8108 C.ar    1  UNL1        0.0001
     19 C         143.2194  131.1622  156.7112 C.ar    1  UNL1        0.0109
     20 C         142.9893  136.6742  156.7238 C.3     1  UNL1        0.0722
     21 C         138.6804  139.7392  159.5590 C.2     1  UNL1        0.4049
     22 O         137.4271  140.1213  158.8285 O.2     1  UNL1       -0.2262
     23 N         139.7576  138.9730  158.8502 N.am    1  UNL1       -0.2460
     24 C         141.0107  138.5910  159.5806 C.3     1  UNL1        0.0968
     25 C         142.0880  137.8247  158.8718 C.3     1  UNL1        0.0231
     26 C         141.9121  137.4405  157.4326 C.3     1  UNL1        0.0194
     27 C         140.6589  137.8226  156.7021 C.3     1  UNL1        0.0231
     28 C         139.5817  138.5888  157.4109 C.3     1  UNL1        0.0968
     29 O         138.8563  140.1234  160.9982 O.3     1  UNL1       -0.4345
     30 C         138.6294  138.0496  162.5467 C.3     1  UNL1        0.0513
     31 C         138.1182  139.3766  162.0695 C.3     1  UNL1        0.2102
@<TRIPOS>BOND
     1    30    31    1
     2    31    29    1
     3    29    21    1
     4    21    22    2
     5    21    23   am
     6    23    24    1
     7    24    25    1
     8    25    26    1
     9    26    20    1
    10    20     1    1
    11     1     2    1
    12     2     3    1
    13     3     4    1
    14     4     5    1
    15     5     6    1
    16     4     7    1
    17     7     8    1
    18     8     9   am
    19     9    10    2
    20     9    11   am
    21    11    12    1
    22    11    13    1
    23     8    14    1
    24    14    15   ar
    25    15    16   ar
    26    16    17   ar
    27    17    18   ar
    28    18    19   ar
    29    26    27    1
    30    27    28    1
    31    28    23    1
    32     6     1    1
    33    19    14   ar
    34    19     4    1
@<TRIPOS>MOLECULE
*****
 31 34 0 0 0
SMALL
GASTEIGER

@<TRIPOS>ATOM
      1 N         143.7752  141.9113  164.0267 N.3     1  UNL1       -0.2727
      2 C         144.1240  142.4082  165.3983 C.3     1  UNL1        0.0725
      3 C         143.2474  142.0644  166.5659 C.3     1  UNL1        0.0232
      4 C         142.0221  141.2237  166.3620 C.3     1  UNL1        0.0430
      5 C         141.6733  140.7268  164.9904 C.3     1  UNL1        0.0232
      6 C         142.5498  141.0705  163.8227 C.3     1  UNL1        0.0725
      7 C         140.7715  140.3968  166.3123 C.3     1  UNL1        0.1053
      8 N         140.2186  140.3085  167.7040 N.am    1  UNL1       -0.2280
      9 C         138.9753  139.5764  168.1139 C.2     1  UNL1        0.3121
     10 O         138.5441  139.5765  169.5506 O.2     1  UNL1       -0.2520
     11 N         138.1630  138.8443  167.0872 N.am    1  UNL1       -0.2602
     12 C         136.9197  138.1123  167.4971 C.3     1  UNL1        0.1165
     13 C         138.5942  138.8443  165.6505 C.3     1  UNL1        0.1165
     14 C         141.1275  141.0808  168.6137 C.ar    1  UNL1        0.1345
     15 N         141.0843  141.3421  170.0901 N.ar    1  UNL1       -0.2291
     16 C         142.1555  142.1690  170.7371 C.ar    1  UNL1        0.1003
     17 C         143.2701  142.7347  169.9077 C.ar    1  UNL1        0.0204
     18 C         143.3133  142.4733  168.4313 C.ar    1  UNL1        0.0001
     19 C         142.2421  141.6464  167.7843 C.ar    1  UNL1        0.0109
     20 C         144.6518  142.2550  162.8590 C.3     1  UNL1        0.0722
     21 C         143.5887  139.8056  157.4860 C.2     1  UNL1        0.4049
     22 O         143.4038  138.3223  157.3612 O.2     1  UNL1       -0.2262
     23 N         143.8545  140.4180  158.8292 N.am    1  UNL1       -0.2460
     24 C         144.0393  141.9013  158.9539 C.3     1  UNL1        0.0968
     25 C         144.3051  142.5137  160.2972 C.3     1  UNL1        0.0231
     26 C         144.3861  141.6427  161.5158 C.3     1  UNL1        0.0194
     27 C         144.2012  140.1593  161.3910 C.3     1  UNL1        0.0231
     28 C         143.9354  139.5470  160.0478 C.3     1  UNL1        0.0968
     29 O         143.5077  140.6766  156.2674 O.3     1  UNL1       -0.4345
     30 C         141.5242  139.9481  154.7557 C.3     1  UNL1        0.0513
     31 C         142.1762  140.9683  155.6412 C.3     1  UNL1        0.2102
@<TRIPOS>BOND
     1    30    31    1
     2    31    29    1
     3    29    21    1
     4    21    22    2
     5    21    23   am
     6    23    24    1
     7    24    25    1
     8    25    26    1
     9    26    20    1
    10    20     1    1
    11     1     2    1
    12     2     3    1
    13     3     4    1
    14     4     5    1
    15     5     6    1
    16     4     7    1
    17     7     8    1
    18     8     9   am
    19     9    10    2
    20     9    11   am
    21    11    12    1
    22    11    13    1
    23     8    14    1
    24    14    15   ar
    25    15    16   ar
    26    16    17   ar
    27    17    18   ar
    28    18    19   ar
    29    26    27    1
    30    27    28    1
    31    28    23    1
    32     6     1    1
    33    19    14   ar
    34    19     4    1
@<TRIPOS>MOLECULE
*****
 31 34 0 0 0
SMALL
GASTEIGER

@<TRIPOS>ATOM
      1 N         140.2966  138.9327  163.2755 N.3     1  UNL1       -0.2727
      2 C         141.3308  139.9447  162.8803 C.3     1  UNL1        0.0725
      3 C         142.0135  140.7690  163.9313 C.3     1  UNL1        0.0232
      4 C         141.6619  140.5812  165.3773 C.3     1  UNL1        0.0430
      5 C         140.6276  139.5692  165.7725 C.3     1  UNL1        0.0232
      6 C         139.9450  138.7450  164.7215 C.3     1  UNL1        0.0725
      7 C         141.4158  140.5054  166.8551 C.3     1  UNL1        0.1053
      8 N         142.3124  141.5034  167.5262 N.am    1  UNL1       -0.2280
      9 C         142.3944  141.7632  169.0012 C.2     1  UNL1        0.3121
     10 O         143.3434  142.7979  169.5289 O.2     1  UNL1       -0.2520
     11 N         141.5273  140.9881  169.9485 N.am    1  UNL1       -0.2602
     12 C         141.6093  141.2479  171.4236 C.3     1  UNL1        0.1165
     13 C         140.5782  139.9533  169.4208 C.3     1  UNL1        0.1165
     14 C         143.1125  142.1961  166.4631 C.ar    1  UNL1        0.1345
     15 N         144.1552  143.2722  166.5327 N.ar    1  UNL1       -0.2291
     16 C         144.7959  143.7783  165.2745 C.ar    1  UNL1        0.1003
     17 C         144.3939  143.2084  163.9464 C.ar    1  UNL1        0.0204
     18 C         143.3512  142.1323  163.8768 C.ar    1  UNL1        0.0001
     19 C         142.7105  141.6262  165.1351 C.ar    1  UNL1        0.0109
     20 C         139.6139  138.1083  162.2245 C.3     1  UNL1        0.0722
     21 C         138.1475  140.5790  156.9572 C.2     1  UNL1        0.4049
     22 O         139.0081  140.3414  155.7517 O.2     1  UNL1       -0.2262
     23 N         138.5141  139.9613  158.2740 N.am    1  UNL1       -0.2460
     24 C         137.6535  140.1990  159.4793 C.3     1  UNL1        0.0968
     25 C         138.0201  139.5813  160.7962 C.3     1  UNL1        0.0231
     26 C         139.2473  138.7260  160.9077 C.3     1  UNL1        0.0194
     27 C         140.1079  138.4884  159.7023 C.3     1  UNL1        0.0231
     28 C         139.7413  139.1060  158.3855 C.3     1  UNL1        0.0968
     29 O         136.9203  141.4343  156.8457 O.3     1  UNL1       -0.4345
     30 C         135.5659  140.2880  154.9478 C.3     1  UNL1        0.0513
     31 C         135.6378  140.8435  156.3393 C.3     1  UNL1        0.2102
@<TRIPOS>BOND
     1    30    31    1
     2    31    29    1
     3    29    21    1
     4    21    22    2
     5    21    23   am
     6    23    24    1
     7    24    25    1
     8    25    26    1
     9    26    20    1
    10    20     1    1
    11     1     2    1
    12     2     3    1
    13     3     4    1
    14     4     5    1
    15     5     6    1
    16     4     7    1
    17     7     8    1
    18     8     9   am
    19     9    10    2
    20     9    11   am
    21    11    12    1
    22    11    13    1
    23     8    14    1
    24    14    15   ar
    25    15    16   ar
    26    16    17   ar
    27    17    18   ar
    28    18    19   ar
    29    26    27    1
    30    27    28    1
    31    28    23    1
    32     6     1    1
    33    19    14   ar
    34    19     4    1
