@<TRIPOS>MOLECULE
*****
 28 31 0 0 0
SMALL
GASTEIGER

@<TRIPOS>ATOM
      1 C         138.4733  143.3010  163.1271 C.ar    1  UNL1        0.2822
      2 N         137.5167  142.4460  162.3499 N.ar    1  UNL1       -0.0371
      3 O         137.3420  141.1540  163.0916 O.2     1  UNL1       -0.3488
      4 C         138.1906  141.2105  164.3272 C.ar    1  UNL1        0.1977
      5 C         138.4170  140.2250  165.4352 C.ar    1  UNL1        0.0435
      6 C         139.3426  140.5665  166.5650 C.ar    1  UNL1        0.0224
      7 C         140.0418  141.8934  166.5869 C.ar    1  UNL1        0.0825
      8 N         139.8154  142.8788  165.4790 N.ar    1  UNL1       -0.2374
      9 C         138.8898  142.5373  164.3491 C.ar    1  UNL1        0.1742
     10 C         140.9674  142.2349  167.7169 C.ar    1  UNL1        0.0282
     11 C         140.4470  142.9685  168.9172 C.ar    1  UNL1        0.0023
     12 C         141.3726  143.3100  170.0471 C.ar    1  UNL1        0.0001
     13 C         142.8187  142.9177  169.9767 C.ar    1  UNL1        0.0009
     14 C         143.3391  142.1840  168.7763 C.ar    1  UNL1        0.0114
     15 C         142.4135  141.8426  167.6464 C.ar    1  UNL1        0.0591
     16 CL        142.9340  141.1088  166.4461 Cl      1  UNL1       -0.0822
     17 O         138.9327  144.6778  162.7486 O.3     1  UNL1       -0.4550
     18 C         140.2446  144.8638  162.0453 C.3     1  UNL1        0.2053
     19 C         141.5166  144.4102  162.6982 C.ar    1  UNL1        0.0186
     20 C         142.0509  143.0355  162.4250 C.ar    1  UNL1       -0.0008
     21 C         143.3229  142.5818  163.0779 C.ar    1  UNL1       -0.0002
     22 C         144.0605  143.5029  164.0039 C.ar    1  UNL1       -0.0000
     23 C         143.5261  144.8776  164.2770 C.ar    1  UNL1       -0.0002
     24 C         142.2541  145.3313  163.6242 C.ar    1  UNL1       -0.0008
     25 N         141.5688  145.5420  159.9153 N.3     1  UNL1       -0.3179
     26 C         140.2844  145.5035  160.6891 C.3     1  UNL1        0.1140
     27 H         141.4139  146.0100  159.0224 H       1  UNL1        0.1190
     28 H         141.8936  144.5896  159.7482 H       1  UNL1        0.1190
@<TRIPOS>BOND
     1    25    26    1
     2    18    26    1
     3    18    17    1
     4    17     1    1
     5     1     2   ar
     6     2     3   ar
     7     3     4   ar
     8     4     5   ar
     9     5     6   ar
    10     6     7   ar
    11     7    10    1
    12    10    11   ar
    13    11    12   ar
    14    12    13   ar
    15    13    14   ar
    16    14    15   ar
    17    15    16    1
    18     7     8   ar
    19     8     9   ar
    20    18    19    1
    21    19    20   ar
    22    20    21   ar
    23    21    22   ar
    24    22    23   ar
    25    23    24   ar
    26     9     1   ar
    27    24    19   ar
    28     9     4   ar
    29    15    10   ar
    30    25    27    1
    31    25    28    1
@<TRIPOS>MOLECULE
*****
 28 31 0 0 0
SMALL
GASTEIGER

@<TRIPOS>ATOM
      1 C         139.4328  140.0906  167.5561 C.ar    1  UNL1        0.2822
      2 N         139.3332  139.8188  169.0279 N.ar    1  UNL1       -0.0371
      3 O         140.5404  140.4123  169.6915 O.2     1  UNL1       -0.3488
      4 C         141.3860  141.0509  168.6298 C.ar    1  UNL1        0.1977
      5 C         142.6909  141.7878  168.6943 C.ar    1  UNL1        0.0435
      6 C         143.3112  142.3258  167.4390 C.ar    1  UNL1        0.0224
      7 C         142.6266  142.1270  166.1193 C.ar    1  UNL1        0.0825
      8 N         141.3217  141.3901  166.0548 N.ar    1  UNL1       -0.2374
      9 C         140.7014  140.8521  167.3100 C.ar    1  UNL1        0.1742
     10 C         143.2470  142.6650  164.8640 C.ar    1  UNL1        0.0282
     11 C         142.9202  144.0540  164.4016 C.ar    1  UNL1        0.0023
     12 C         143.5406  144.5921  163.1463 C.ar    1  UNL1        0.0001
     13 C         144.4878  143.7411  162.3534 C.ar    1  UNL1        0.0009
     14 C         144.8146  142.3520  162.8159 C.ar    1  UNL1        0.0114
     15 C         144.1942  141.8140  164.0711 C.ar    1  UNL1        0.0591
     16 CL        144.5210  140.4250  164.5336 Cl      1  UNL1       -0.0822
     17 O         138.4382  139.6740  166.5133 O.3     1  UNL1       -0.4550
     18 C         138.5258  138.3097  165.8959 C.3     1  UNL1        0.2053
     19 C         139.3991  138.0834  164.6975 C.ar    1  UNL1        0.0186
     20 C         140.8747  137.8788  164.8727 C.ar    1  UNL1       -0.0008
     21 C         141.7480  137.6525  163.6743 C.ar    1  UNL1       -0.0002
     22 C         141.1456  137.6310  162.3008 C.ar    1  UNL1       -0.0000
     23 C         139.6700  137.8356  162.1256 C.ar    1  UNL1       -0.0002
     24 C         138.7967  138.0618  163.3240 C.ar    1  UNL1       -0.0008
     25 N         136.7379  137.4294  167.5628 N.3     1  UNL1       -0.3179
     26 C         137.7400  137.1717  166.4770 C.3     1  UNL1        0.1140
     27 H         136.3000  136.5500  167.8371 H       1  UNL1        0.1190
     28 H         136.0239  138.0726  167.2209 H       1  UNL1        0.1190
@<TRIPOS>BOND
     1    25    26    1
     2    18    26    1
     3    18    17    1
     4    17     1    1
     5     1     2   ar
     6     2     3   ar
     7     3     4   ar
     8     4     5   ar
     9     5     6   ar
    10     6     7   ar
    11     7    10    1
    12    10    11   ar
    13    11    12   ar
    14    12    13   ar
    15    13    14   ar
    16    14    15   ar
    17    15    16    1
    18     7     8   ar
    19     8     9   ar
    20    18    19    1
    21    19    20   ar
    22    20    21   ar
    23    21    22   ar
    24    22    23   ar
    25    23    24   ar
    26     9     1   ar
    27    24    19   ar
    28     9     4   ar
    29    15    10   ar
    30    25    27    1
    31    25    28    1
@<TRIPOS>MOLECULE
*****
 28 31 0 0 0
SMALL
GASTEIGER

@<TRIPOS>ATOM
      1 C         143.2775  139.2133  163.1665 C.ar    1  UNL1        0.2822
      2 N         144.2014  139.4075  162.0009 N.ar    1  UNL1       -0.0371
      3 O         144.9427  140.6952  162.2067 O.2     1  UNL1       -0.3488
      4 C         144.4770  141.2968  163.4995 C.ar    1  UNL1        0.1977
      5 C         144.8570  142.5602  164.2131 C.ar    1  UNL1        0.0435
      6 C         144.2079  142.9077  165.5199 C.ar    1  UNL1        0.0224
      7 C         143.1787  141.9918  166.1131 C.ar    1  UNL1        0.0825
      8 N         142.7987  140.7284  165.3995 N.ar    1  UNL1       -0.2374
      9 C         143.4478  140.3809  164.0927 C.ar    1  UNL1        0.1742
     10 C         142.5296  142.3394  167.4200 C.ar    1  UNL1        0.0282
     11 C         143.3120  142.2398  168.6959 C.ar    1  UNL1        0.0023
     12 C         142.6629  142.5874  170.0028 C.ar    1  UNL1        0.0001
     13 C         141.2314  143.0345  170.0337 C.ar    1  UNL1        0.0009
     14 C         140.4490  143.1341  168.7577 C.ar    1  UNL1        0.0114
     15 C         141.0982  142.7865  167.4509 C.ar    1  UNL1        0.0591
     16 CL        140.3158  142.8861  166.1749 Cl      1  UNL1       -0.0822
     17 O         142.3467  138.0548  163.3703 O.3     1  UNL1       -0.4550
     18 C         140.8899  138.1963  163.0412 C.3     1  UNL1        0.2053
     19 C         139.8914  138.4184  164.1383 C.ar    1  UNL1        0.0186
     20 C         139.4185  139.8069  164.4522 C.ar    1  UNL1       -0.0008
     21 C         138.4200  140.0291  165.5493 C.ar    1  UNL1       -0.0002
     22 C         137.8944  138.8628  166.3324 C.ar    1  UNL1       -0.0000
     23 C         138.3673  137.4743  166.0185 C.ar    1  UNL1       -0.0002
     24 C         139.3658  137.2521  164.9215 C.ar    1  UNL1       -0.0008
     25 N         139.0381  137.6596  161.2998 N.3     1  UNL1       -0.3179
     26 C         140.4319  138.1155  161.6152 C.3     1  UNL1        0.1140
     27 H         138.8990  137.6653  160.2893 H       1  UNL1        0.1190
     28 H         138.3668  138.2896  161.7389 H       1  UNL1        0.1190
@<TRIPOS>BOND
     1    25    26    1
     2    18    26    1
     3    18    17    1
     4    17     1    1
     5     1     2   ar
     6     2     3   ar
     7     3     4   ar
     8     4     5   ar
     9     5     6   ar
    10     6     7   ar
    11     7    10    1
    12    10    11   ar
    13    11    12   ar
    14    12    13   ar
    15    13    14   ar
    16    14    15   ar
    17    15    16    1
    18     7     8   ar
    19     8     9   ar
    20    18    19    1
    21    19    20   ar
    22    20    21   ar
    23    21    22   ar
    24    22    23   ar
    25    23    24   ar
    26     9     1   ar
    27    24    19   ar
    28     9     4   ar
    29    15    10   ar
    30    25    27    1
    31    25    28    1
@<TRIPOS>MOLECULE
*****
 28 31 0 0 0
SMALL
GASTEIGER

@<TRIPOS>ATOM
      1 C         142.1647  138.3601  163.5212 C.ar    1  UNL1        0.2822
      2 N         141.5503  137.3724  162.5741 N.ar    1  UNL1       -0.0371
      3 O         140.1307  137.1425  163.0008 O.2     1  UNL1       -0.3488
      4 C         139.8678  137.9881  164.2115 C.ar    1  UNL1        0.1977
      5 C         138.6462  138.1701  165.0626 C.ar    1  UNL1        0.0435
      6 C         138.6816  139.1046  166.2354 C.ar    1  UNL1        0.0224
      7 C         139.9387  139.8571  166.5570 C.ar    1  UNL1        0.0825
      8 N         141.1604  139.6751  165.7059 N.ar    1  UNL1       -0.2374
      9 C         141.1249  138.7406  164.5332 C.ar    1  UNL1        0.1742
     10 C         139.9741  140.7916  167.7299 C.ar    1  UNL1        0.0282
     11 C         139.6495  140.2839  169.1035 C.ar    1  UNL1        0.0023
     12 C         139.6849  141.2184  170.2763 C.ar    1  UNL1        0.0001
     13 C         140.0449  142.6607  170.0755 C.ar    1  UNL1        0.0009
     14 C         140.3696  143.1684  168.7018 C.ar    1  UNL1        0.0114
     15 C         140.3342  142.2338  167.5291 C.ar    1  UNL1        0.0591
     16 CL        140.6588  142.7415  166.1554 Cl      1  UNL1       -0.0822
     17 O         143.5719  138.8766  163.4661 O.3     1  UNL1       -0.4550
     18 C         143.8911  140.0989  162.6571 C.3     1  UNL1        0.2053
     19 C         143.9655  141.4408  163.3233 C.ar    1  UNL1        0.0186
     20 C         144.0746  141.5318  164.8165 C.ar    1  UNL1       -0.0008
     21 C         144.1490  142.8738  165.4826 C.ar    1  UNL1       -0.0002
     22 C         144.1142  144.1245  164.6555 C.ar    1  UNL1       -0.0000
     23 C         144.0051  144.0335  163.1622 C.ar    1  UNL1       -0.0002
     24 C         143.9307  142.6916  162.4961 C.ar    1  UNL1       -0.0008
     25 N         144.4476  138.6413  160.5797 N.3     1  UNL1       -0.3179
     26 C         144.1359  139.9791  161.1821 C.3     1  UNL1        0.1140
     27 H         144.5841  138.7447  159.5741 H       1  UNL1        0.1190
     28 H         143.6727  138.0012  160.7536 H       1  UNL1        0.1190
@<TRIPOS>BOND
     1    25    26    1
     2    18    26    1
     3    18    17    1
     4    17     1    1
     5     1     2   ar
     6     2     3   ar
     7     3     4   ar
     8     4     5   ar
     9     5     6   ar
    10     6     7   ar
    11     7    10    1
    12    10    11   ar
    13    11    12   ar
    14    12    13   ar
    15    13    14   ar
    16    14    15   ar
    17    15    16    1
    18     7     8   ar
    19     8     9   ar
    20    18    19    1
    21    19    20   ar
    22    20    21   ar
    23    21    22   ar
    24    22    23   ar
    25    23    24   ar
    26     9     1   ar
    27    24    19   ar
    28     9     4   ar
    29    15    10   ar
    30    25    27    1
    31    25    28    1
@<TRIPOS>MOLECULE
*****
 28 31 0 0 0
SMALL
GASTEIGER

@<TRIPOS>ATOM
      1 C         143.1062  144.0582  162.8940 C.ar    1  UNL1        0.2822
      2 N         144.4787  144.0429  162.2891 N.ar    1  UNL1       -0.0371
      3 O         145.1052  142.7148  162.5950 O.2     1  UNL1       -0.3488
      4 C         144.1199  141.9092  163.3888 C.ar    1  UNL1        0.1977
      5 C         144.1880  140.5269  163.9672 C.ar    1  UNL1        0.0435
      6 C         143.0207  139.9749  164.7304 C.ar    1  UNL1        0.0224
      7 C         141.7852  140.8052  164.9152 C.ar    1  UNL1        0.0825
      8 N         141.7170  142.1875  164.3368 N.ar    1  UNL1       -0.2374
      9 C         142.8844  142.7395  163.5736 C.ar    1  UNL1        0.1742
     10 C         140.6178  140.2531  165.6785 C.ar    1  UNL1        0.0282
     11 C         140.5491  140.4194  167.1676 C.ar    1  UNL1        0.0023
     12 C         139.3817  139.8673  167.9309 C.ar    1  UNL1        0.0001
     13 C         138.2831  139.1490  167.2049 C.ar    1  UNL1        0.0009
     14 C         138.3518  138.9828  165.7157 C.ar    1  UNL1        0.0114
     15 C         139.5192  139.5348  164.9525 C.ar    1  UNL1        0.0591
     16 CL        139.5879  139.3686  163.4633 Cl      1  UNL1       -0.0822
     17 O         142.1272  145.1929  162.8304 O.3     1  UNL1       -0.4550
     18 C         140.8005  145.0020  162.1569 C.3     1  UNL1        0.2053
     19 C         139.6798  144.3227  162.8868 C.ar    1  UNL1        0.0186
     20 C         138.9775  143.1538  162.2619 C.ar    1  UNL1       -0.0008
     21 C         137.8568  142.4745  162.9917 C.ar    1  UNL1       -0.0002
     22 C         137.4385  142.9642  164.3464 C.ar    1  UNL1       -0.0000
     23 C         138.1408  144.1331  164.9713 C.ar    1  UNL1       -0.0002
     24 C         139.2615  144.8124  164.2414 C.ar    1  UNL1       -0.0008
     25 N         141.7353  145.4775  159.7800 N.3     1  UNL1       -0.3179
     26 C         140.5945  145.4904  160.7537 C.3     1  UNL1        0.1140
     27 H         141.4191  145.8409  158.8809 H       1  UNL1        0.1190
     28 H         142.0703  144.5214  159.6614 H       1  UNL1        0.1190
@<TRIPOS>BOND
     1    25    26    1
     2    18    26    1
     3    18    17    1
     4    17     1    1
     5     1     2   ar
     6     2     3   ar
     7     3     4   ar
     8     4     5   ar
     9     5     6   ar
    10     6     7   ar
    11     7    10    1
    12    10    11   ar
    13    11    12   ar
    14    12    13   ar
    15    13    14   ar
    16    14    15   ar
    17    15    16    1
    18     7     8   ar
    19     8     9   ar
    20    18    19    1
    21    19    20   ar
    22    20    21   ar
    23    21    22   ar
    24    22    23   ar
    25    23    24   ar
    26     9     1   ar
    27    24    19   ar
    28     9     4   ar
    29    15    10   ar
    30    25    27    1
    31    25    28    1
@<TRIPOS>MOLECULE
*****
 28 31 0 0 0
SMALL
GASTEIGER

@<TRIPOS>ATOM
      1 C         139.4014  138.4020  163.0402 C.ar    1  UNL1        0.2822
      2 N         140.2478  137.4873  162.2055 N.ar    1  UNL1       -0.0371
      3 O         141.5595  137.2996  162.9084 O.2     1  UNL1       -0.3488
      4 C         141.5237  138.0983  164.1776 C.ar    1  UNL1        0.1977
      5 C         142.5334  138.2931  165.2697 C.ar    1  UNL1        0.0435
      6 C         142.2092  139.1693  166.4432 C.ar    1  UNL1        0.0224
      7 C         140.8754  139.8507  166.5246 C.ar    1  UNL1        0.0825
      8 N         139.8657  139.6558  165.4326 N.ar    1  UNL1       -0.2374
      9 C         140.1899  138.7796  164.2591 C.ar    1  UNL1        0.1742
     10 C         140.5512  140.7269  167.6982 C.ar    1  UNL1        0.0282
     11 C         140.0670  140.1156  168.9795 C.ar    1  UNL1        0.0023
     12 C         139.7429  140.9919  170.1531 C.ar    1  UNL1        0.0001
     13 C         139.9030  142.4794  170.0452 C.ar    1  UNL1        0.0009
     14 C         140.3872  143.0907  168.7638 C.ar    1  UNL1        0.0114
     15 C         140.7114  142.2145  167.5904 C.ar    1  UNL1        0.0591
     16 CL        141.1956  142.8257  166.3090 Cl      1  UNL1       -0.0822
     17 O         138.0105  138.8590  162.7135 O.3     1  UNL1       -0.4550
     18 C         137.8015  140.0740  161.8589 C.3     1  UNL1        0.2053
     19 C         137.9765  141.4431  162.4462 C.ar    1  UNL1        0.0186
     20 C         137.5716  141.7075  163.8661 C.ar    1  UNL1       -0.0008
     21 C         137.7466  143.0767  164.4533 C.ar    1  UNL1       -0.0002
     22 C         138.3265  144.1813  163.6206 C.ar    1  UNL1       -0.0000
     23 C         138.7313  143.9169  162.2007 C.ar    1  UNL1       -0.0002
     24 C         138.5563  142.5478  161.6134 C.ar    1  UNL1       -0.0008
     25 N         138.4480  139.5129  159.4059 N.3     1  UNL1       -0.3179
     26 C         137.4176  139.9198  160.4171 C.3     1  UNL1        0.1140
     27 H         138.0159  139.4571  158.4837 H       1  UNL1        0.1190
     28 H         138.8304  138.6015  159.6579 H       1  UNL1        0.1190
@<TRIPOS>BOND
     1    25    26    1
     2    18    26    1
     3    18    17    1
     4    17     1    1
     5     1     2   ar
     6     2     3   ar
     7     3     4   ar
     8     4     5   ar
     9     5     6   ar
    10     6     7   ar
    11     7    10    1
    12    10    11   ar
    13    11    12   ar
    14    12    13   ar
    15    13    14   ar
    16    14    15   ar
    17    15    16    1
    18     7     8   ar
    19     8     9   ar
    20    18    19    1
    21    19    20   ar
    22    20    21   ar
    23    21    22   ar
    24    22    23   ar
    25    23    24   ar
    26     9     1   ar
    27    24    19   ar
    28     9     4   ar
    29    15    10   ar
    30    25    27    1
    31    25    28    1
@<TRIPOS>MOLECULE
*****
 28 31 0 0 0
SMALL
GASTEIGER

@<TRIPOS>ATOM
      1 C         141.9549  137.8746  162.0481 C.ar    1  UNL1        0.2822
      2 N         142.9493  137.7863  160.9286 N.ar    1  UNL1       -0.0371
      3 O         144.1861  138.5242  161.3479 O.2     1  UNL1       -0.3488
      4 C         143.9561  139.0686  162.7266 C.ar    1  UNL1        0.1977
      5 C         144.8241  139.8780  163.6438 C.ar    1  UNL1        0.0435
      6 C         144.3132  140.2859  164.9938 C.ar    1  UNL1        0.0224
      7 C         142.9342  139.8844  165.4266 C.ar    1  UNL1        0.0825
      8 N         142.0662  139.0751  164.5093 N.ar    1  UNL1       -0.2374
      9 C         142.5771  138.6671  163.1594 C.ar    1  UNL1        0.1742
     10 C         142.4233  140.2924  166.7766 C.ar    1  UNL1        0.0282
     11 C         142.6856  139.4245  167.9715 C.ar    1  UNL1        0.0023
     12 C         142.1747  139.8324  169.3216 C.ar    1  UNL1        0.0001
     13 C         141.4015  141.1084  169.4767 C.ar    1  UNL1        0.0009
     14 C         141.1393  141.9764  168.2817 C.ar    1  UNL1        0.0114
     15 C         141.6501  141.5684  166.9317 C.ar    1  UNL1        0.0591
     16 CL        141.3879  142.4364  165.7367 Cl      1  UNL1       -0.0822
     17 O         140.5797  137.2756  162.0552 O.3     1  UNL1       -0.4550
     18 C         139.3815  138.1510  162.2745 C.3     1  UNL1        0.2053
     19 C         138.9762  138.5326  163.6674 C.ar    1  UNL1        0.0186
     20 C         138.7728  137.4705  164.7068 C.ar    1  UNL1       -0.0008
     21 C         138.3675  137.8520  166.0998 C.ar    1  UNL1       -0.0002
     22 C         138.1657  139.2958  166.4531 C.ar    1  UNL1       -0.0000
     23 C         138.3690  140.3579  165.4136 C.ar    1  UNL1       -0.0002
     24 C         138.7743  139.9763  164.0207 C.ar    1  UNL1       -0.0008
     25 N         137.1112  138.8677  161.2341 N.3     1  UNL1       -0.3179
     26 C         138.5886  138.6448  161.1008 C.3     1  UNL1        0.1140
     27 H         136.7363  139.2013  160.3461 H       1  UNL1        0.1190
     28 H         136.9364  139.5630  161.9596 H       1  UNL1        0.1190
@<TRIPOS>BOND
     1    25    26    1
     2    18    26    1
     3    18    17    1
     4    17     1    1
     5     1     2   ar
     6     2     3   ar
     7     3     4   ar
     8     4     5   ar
     9     5     6   ar
    10     6     7   ar
    11     7    10    1
    12    10    11   ar
    13    11    12   ar
    14    12    13   ar
    15    13    14   ar
    16    14    15   ar
    17    15    16    1
    18     7     8   ar
    19     8     9   ar
    20    18    19    1
    21    19    20   ar
    22    20    21   ar
    23    21    22   ar
    24    22    23   ar
    25    23    24   ar
    26     9     1   ar
    27    24    19   ar
    28     9     4   ar
    29    15    10   ar
    30    25    27    1
    31    25    28    1
@<TRIPOS>MOLECULE
*****
 28 31 0 0 0
SMALL
GASTEIGER

@<TRIPOS>ATOM
      1 C         143.6469  143.2250  162.5858 C.ar    1  UNL1        0.2822
      2 N         144.7987  142.8115  161.7184 N.ar    1  UNL1       -0.0371
      3 O         145.3223  141.5044  162.2353 O.2     1  UNL1       -0.3488
      4 C         144.4941  141.1100  163.4222 C.ar    1  UNL1        0.1977
      5 C         144.5490  139.9200  164.3336 C.ar    1  UNL1        0.0435
      6 C         143.5685  139.7934  165.4616 C.ar    1  UNL1        0.0224
      7 C         142.5330  140.8568  165.6782 C.ar    1  UNL1        0.0825
      8 N         142.4781  142.0469  164.7668 N.ar    1  UNL1       -0.2374
      9 C         143.4586  142.1735  163.6387 C.ar    1  UNL1        0.1742
     10 C         141.5525  140.7302  166.8063 C.ar    1  UNL1        0.0282
     11 C         140.3053  139.9161  166.6281 C.ar    1  UNL1        0.0023
     12 C         139.3247  139.7895  167.7562 C.ar    1  UNL1        0.0001
     13 C         139.5914  140.4770  169.0625 C.ar    1  UNL1        0.0009
     14 C         140.8387  141.2911  169.2406 C.ar    1  UNL1        0.0114
     15 C         141.8192  141.4177  168.1125 C.ar    1  UNL1        0.0591
     16 CL        143.0664  142.2318  168.2907 Cl      1  UNL1       -0.0822
     17 O         142.8273  144.4713  162.4279 O.3     1  UNL1       -0.4550
     18 C         141.4530  144.3947  161.8313 C.3     1  UNL1        0.2053
     19 C         140.2513  144.3077  162.7248 C.ar    1  UNL1        0.0186
     20 C         138.9695  143.7287  162.2036 C.ar    1  UNL1       -0.0008
     21 C         137.7678  143.6417  163.0971 C.ar    1  UNL1       -0.0002
     22 C         137.8480  144.1338  164.5118 C.ar    1  UNL1       -0.0000
     23 C         139.1298  144.7129  165.0330 C.ar    1  UNL1       -0.0002
     24 C         140.3315  144.7999  164.1395 C.ar    1  UNL1       -0.0008
     25 N         141.8639  145.5211  159.5265 N.3     1  UNL1       -0.3179
     26 C         141.2806  144.4050  160.3413 C.3     1  UNL1        0.1140
     27 H         141.6525  145.3686  158.5404 H       1  UNL1        0.1190
     28 H         142.8751  145.5454  159.6577 H       1  UNL1        0.1190
@<TRIPOS>BOND
     1    25    26    1
     2    18    26    1
     3    18    17    1
     4    17     1    1
     5     1     2   ar
     6     2     3   ar
     7     3     4   ar
     8     4     5   ar
     9     5     6   ar
    10     6     7   ar
    11     7    10    1
    12    10    11   ar
    13    11    12   ar
    14    12    13   ar
    15    13    14   ar
    16    14    15   ar
    17    15    16    1
    18     7     8   ar
    19     8     9   ar
    20    18    19    1
    21    19    20   ar
    22    20    21   ar
    23    21    22   ar
    24    22    23   ar
    25    23    24   ar
    26     9     1   ar
    27    24    19   ar
    28     9     4   ar
    29    15    10   ar
    30    25    27    1
    31    25    28    1
@<TRIPOS>MOLECULE
*****
 28 31 0 0 0
SMALL
GASTEIGER

@<TRIPOS>ATOM
      1 C         138.1730  140.5167  163.4354 C.ar    1  UNL1        0.2822
      2 N         137.2437  141.1572  162.4474 N.ar    1  UNL1       -0.0371
      3 O         137.1842  142.6249  162.7512 O.2     1  UNL1       -0.3488
      4 C         138.0767  142.8915  163.9270 C.ar    1  UNL1        0.1977
      5 C         138.4118  144.1523  164.6672 C.ar    1  UNL1        0.0435
      6 C         139.3581  144.1102  165.8302 C.ar    1  UNL1        0.0224
      7 C         139.9692  142.8072  166.2531 C.ar    1  UNL1        0.0825
      8 N         139.6341  141.5464  165.5129 N.ar    1  UNL1       -0.2374
      9 C         138.6878  141.5885  164.3498 C.ar    1  UNL1        0.1742
     10 C         140.9156  142.7651  167.4162 C.ar    1  UNL1        0.0282
     11 C         140.4303  143.1177  168.7910 C.ar    1  UNL1        0.0023
     12 C         141.3767  143.0756  169.9541 C.ar    1  UNL1        0.0001
     13 C         142.8082  142.6809  169.7423 C.ar    1  UNL1        0.0009
     14 C         143.2934  142.3283  168.3674 C.ar    1  UNL1        0.0114
     15 C         142.3471  142.3704  167.2044 C.ar    1  UNL1        0.0591
     16 CL        142.8324  142.0178  165.8295 Cl      1  UNL1       -0.0822
     17 O         138.5256  139.0601  163.4980 O.3     1  UNL1       -0.4550
     18 C         139.7801  138.5632  162.8426 C.3     1  UNL1        0.2053
     19 C         141.0877  138.6356  163.5741 C.ar    1  UNL1        0.0186
     20 C         141.1389  138.3604  165.0477 C.ar    1  UNL1       -0.0008
     21 C         142.4465  138.4328  165.7792 C.ar    1  UNL1       -0.0002
     22 C         143.7027  138.7803  165.0369 C.ar    1  UNL1       -0.0000
     23 C         143.6515  139.0554  163.5633 C.ar    1  UNL1       -0.0002
     24 C         142.3439  138.9831  162.8318 C.ar    1  UNL1       -0.0008
     25 N         138.9735  138.7149  160.3776 N.3     1  UNL1       -0.3179
     26 C         139.7270  137.9941  161.4558 C.3     1  UNL1        0.1140
     27 H         139.0424  138.1900  159.5056 H       1  UNL1        0.1190
     28 H         139.3725  139.6445  160.2472 H       1  UNL1        0.1190
@<TRIPOS>BOND
     1    25    26    1
     2    18    26    1
     3    18    17    1
     4    17     1    1
     5     1     2   ar
     6     2     3   ar
     7     3     4   ar
     8     4     5   ar
     9     5     6   ar
    10     6     7   ar
    11     7    10    1
    12    10    11   ar
    13    11    12   ar
    14    12    13   ar
    15    13    14   ar
    16    14    15   ar
    17    15    16    1
    18     7     8   ar
    19     8     9   ar
    20    18    19    1
    21    19    20   ar
    22    20    21   ar
    23    21    22   ar
    24    22    23   ar
    25    23    24   ar
    26     9     1   ar
    27    24    19   ar
    28     9     4   ar
    29    15    10   ar
    30    25    27    1
    31    25    28    1
