@<TRIPOS>MOLECULE
*****
 29 31 0 0 0
SMALL
GASTEIGER

@<TRIPOS>ATOM
      1 C         138.7929  139.5053  165.6837 C.ar    1  UNL1        0.0252
      2 C         138.3218  140.7302  164.9574 C.ar    1  UNL1       -0.0009
      3 C         138.0273  140.6641  163.4881 C.ar    1  UNL1        0.0210
      4 C         138.2040  139.3731  162.7451 C.ar    1  UNL1        0.1397
      5 F         137.9095  139.3070  161.2757 F       1  UNL1       -0.2044
      6 C         138.6751  138.1482  163.4714 C.ar    1  UNL1        0.0587
      7 C         138.9695  138.2143  164.9407 C.ar    1  UNL1        0.1401
      8 F         139.4407  136.9893  165.6671 F       1  UNL1       -0.2044
      9 C         137.7248  138.9450  167.1884 C.3     1  UNL1        0.0291
     10 C         139.0874  139.5714  167.1531 C.3     1  UNL1        0.1080
     11 C         140.3476  140.1748  166.6075 C.3     1  UNL1        0.0388
     12 C         141.4291  140.6268  167.5434 C.3     1  UNL1        0.0671
     13 S         141.2503  140.4753  169.0251 S.3     1  UNL1       -0.0807
     14 C         139.9901  139.8719  169.5706 C.2     1  UNL1        0.1482
     15 N         139.8114  139.7204  171.0523 N.pl3   1  UNL1       -0.3380
     16 N         138.9086  139.4199  168.6347 N.2     1  UNL1       -0.2509
     17 H         140.5212  140.0170  171.6666 H       1  UNL1        0.1442
     18 H         138.9843  139.3244  171.4104 H       1  UNL1        0.1442
     19 C         137.5562  141.8891  162.7617 C.3     1  UNL1        0.0981
     20 N         137.5583  143.2193  163.4548 N.3     1  UNL1       -0.2852
     21 H         137.6794  143.0325  164.4502 H       1  UNL1        0.1239
     22 C         138.5750  144.2574  163.0823 C.3     1  UNL1        0.1855
     23 C         138.5081  143.8098  161.6523 C.3     1  UNL1        0.1674
     24 O         139.5248  144.8480  161.2797 O.3     1  UNL1       -0.3502
     25 C         139.5916  145.2956  162.7098 C.3     1  UNL1        0.1674
     26 C         138.6418  144.7051  164.5124 C.3     1  UNL1        0.4135
     27 F         138.7086  145.1527  165.9425 F       1  UNL1       -0.1684
     28 F         140.0903  145.0524  164.3359 F       1  UNL1       -0.1684
     29 F         137.1932  144.3577  164.6888 F       1  UNL1       -0.1684
@<TRIPOS>BOND
     1    10     9    1
     2    10     1    1
     3     1     2   ar
     4     2     3   ar
     5     3    19    1
     6    19    20    1
     7    20    22    1
     8    22    26    1
     9    26    27    1
    10    26    28    1
    11    26    29    1
    12    22    23    1
    13    23    24    1
    14    24    25    1
    15     3     4   ar
    16     4     5    1
    17     4     6   ar
    18     6     7   ar
    19     7     8    1
    20    10    11    1
    21    11    12    1
    22    12    13    1
    23    13    14    1
    24    14    15    1
    25    14    16    2
    26    16    10    1
    27     7     1   ar
    28    25    22    1
    29    20    21    1
    30    15    17    1
    31    15    18    1
@<TRIPOS>MOLECULE
*****
 29 31 0 0 0
SMALL
GASTEIGER

@<TRIPOS>ATOM
      1 C         141.1977  140.7127  166.9556 C.ar    1  UNL1        0.0252
      2 C         139.9661  141.1983  166.2504 C.ar    1  UNL1       -0.0009
      3 C         139.3844  140.4001  165.1215 C.ar    1  UNL1        0.0210
      4 C         140.0343  139.1163  164.6978 C.ar    1  UNL1        0.1397
      5 F         139.4525  138.3181  163.5689 F       1  UNL1       -0.2044
      6 C         141.2659  138.6308  165.4030 C.ar    1  UNL1        0.0587
      7 C         141.8476  139.4290  166.5319 C.ar    1  UNL1        0.1401
      8 F         143.0792  138.9434  167.2372 F       1  UNL1       -0.2044
      9 C         142.5322  142.1046  166.9309 C.3     1  UNL1        0.0291
     10 C         141.7794  141.5110  168.0846 C.3     1  UNL1        0.1080
     11 C         140.8247  140.6402  168.8462 C.3     1  UNL1        0.0388
     12 C         140.7131  140.7737  170.3361 C.3     1  UNL1        0.0671
     13 S         141.5563  141.7781  171.0643 S.3     1  UNL1       -0.0807
     14 C         142.5110  142.6489  170.3027 C.2     1  UNL1        0.1482
     15 N         143.3542  143.6532  171.0309 N.pl3   1  UNL1       -0.3380
     16 N         142.6227  142.5153  168.8128 N.2     1  UNL1       -0.2509
     17 H         143.2810  143.7409  172.0088 H       1  UNL1        0.1442
     18 H         143.9809  144.2248  170.5310 H       1  UNL1        0.1442
     19 C         138.1527  140.8857  164.4163 C.3     1  UNL1        0.0981
     20 N         137.6624  142.2854  164.6411 N.3     1  UNL1       -0.2852
     21 H         137.9831  142.5643  165.5683 H       1  UNL1        0.1239
     22 C         138.0616  143.3806  163.6972 C.3     1  UNL1        0.1855
     23 C         137.7191  142.5009  162.5316 C.3     1  UNL1        0.1674
     24 O         138.1183  143.5962  161.5876 O.3     1  UNL1       -0.3502
     25 C         138.4609  144.4759  162.7532 C.3     1  UNL1        0.1674
     26 C         138.4042  144.2603  164.8628 C.3     1  UNL1        0.4135
     27 F         138.7467  145.1401  166.0285 F       1  UNL1       -0.1684
     28 F         139.8637  144.0947  164.5589 F       1  UNL1       -0.1684
     29 F         136.9446  144.4259  165.1667 F       1  UNL1       -0.1684
@<TRIPOS>BOND
     1    10     9    1
     2    10     1    1
     3     1     2   ar
     4     2     3   ar
     5     3    19    1
     6    19    20    1
     7    20    22    1
     8    22    26    1
     9    26    27    1
    10    26    28    1
    11    26    29    1
    12    22    23    1
    13    23    24    1
    14    24    25    1
    15     3     4   ar
    16     4     5    1
    17     4     6   ar
    18     6     7   ar
    19     7     8    1
    20    10    11    1
    21    11    12    1
    22    12    13    1
    23    13    14    1
    24    14    15    1
    25    14    16    2
    26    16    10    1
    27     7     1   ar
    28    25    22    1
    29    20    21    1
    30    15    17    1
    31    15    18    1
@<TRIPOS>MOLECULE
*****
 29 31 0 0 0
SMALL
GASTEIGER

@<TRIPOS>ATOM
      1 C         140.6095  141.1816  166.8550 C.ar    1  UNL1        0.0252
      2 C         141.0263  142.3689  166.0386 C.ar    1  UNL1       -0.0009
      3 C         140.2162  142.7800  164.8450 C.ar    1  UNL1        0.0210
      4 C         138.9893  142.0038  164.4679 C.ar    1  UNL1        0.1397
      5 F         138.1792  142.4150  163.2742 F       1  UNL1       -0.2044
      6 C         138.5725  140.8166  165.2843 C.ar    1  UNL1        0.0587
      7 C         139.3826  140.4055  166.4779 C.ar    1  UNL1        0.1401
      8 F         138.9658  139.2181  167.2944 F       1  UNL1       -0.2044
      9 C         142.1209  139.9901  166.9766 C.3     1  UNL1        0.0291
     10 C         141.4197  140.7705  168.0487 C.3     1  UNL1        0.1080
     11 C         140.4371  141.6936  168.7062 C.3     1  UNL1        0.0388
     12 C         140.5082  141.9346  170.1850 C.3     1  UNL1        0.0671
     13 S         141.5618  141.2524  171.0063 S.3     1  UNL1       -0.0807
     14 C         142.5444  140.3293  170.3488 C.2     1  UNL1        0.1482
     15 N         143.5981  139.6471  171.1700 N.pl3   1  UNL1       -0.3380
     16 N         142.4733  140.0883  168.8700 N.2     1  UNL1       -0.2509
     17 H         143.6447  139.8053  172.1406 H       1  UNL1        0.1442
     18 H         144.2430  139.0412  170.7385 H       1  UNL1        0.1442
     19 C         140.6330  143.9673  164.0285 C.3     1  UNL1        0.0981
     20 N         141.9792  144.5920  164.2463 N.3     1  UNL1       -0.2852
     21 H         142.2589  144.3638  165.2002 H       1  UNL1        0.1239
     22 C         143.1299  144.2229  163.3576 C.3     1  UNL1        0.1855
     23 C         142.2385  144.3358  162.1565 C.3     1  UNL1        0.1674
     24 O         143.3892  143.9667  161.2678 O.3     1  UNL1       -0.3502
     25 C         144.2806  143.8538  162.4689 C.3     1  UNL1        0.1674
     26 C         144.0213  144.1101  164.5587 C.3     1  UNL1        0.4135
     27 F         144.9127  143.9971  165.7599 F       1  UNL1       -0.1684
     28 F         144.0813  145.6058  164.6547 F       1  UNL1       -0.1684
     29 F         143.9613  142.6143  164.4626 F       1  UNL1       -0.1684
@<TRIPOS>BOND
     1    10     9    1
     2    10     1    1
     3     1     2   ar
     4     2     3   ar
     5     3    19    1
     6    19    20    1
     7    20    22    1
     8    22    26    1
     9    26    27    1
    10    26    28    1
    11    26    29    1
    12    22    23    1
    13    23    24    1
    14    24    25    1
    15     3     4   ar
    16     4     5    1
    17     4     6   ar
    18     6     7   ar
    19     7     8    1
    20    10    11    1
    21    11    12    1
    22    12    13    1
    23    13    14    1
    24    14    15    1
    25    14    16    2
    26    16    10    1
    27     7     1   ar
    28    25    22    1
    29    20    21    1
    30    15    17    1
    31    15    18    1
@<TRIPOS>MOLECULE
*****
 29 31 0 0 0
SMALL
GASTEIGER

@<TRIPOS>ATOM
      1 C         142.2649  141.2700  166.4467 C.ar    1  UNL1        0.0252
      2 C         141.7308  139.9003  166.1488 C.ar    1  UNL1       -0.0009
      3 C         142.3501  139.0742  165.0607 C.ar    1  UNL1        0.0210
      4 C         143.5035  139.6176  164.2706 C.ar    1  UNL1        0.1397
      5 F         144.1228  138.7914  163.1825 F       1  UNL1       -0.2044
      6 C         144.0376  140.9873  164.5685 C.ar    1  UNL1        0.0587
      7 C         143.4182  141.8135  165.6565 C.ar    1  UNL1        0.1401
      8 F         143.9523  143.1832  165.9545 F       1  UNL1       -0.2044
      9 C         140.6710  142.3553  166.4242 C.3     1  UNL1        0.0291
     10 C         141.6455  142.0962  167.5347 C.3     1  UNL1        0.1080
     11 C         142.8351  141.5502  168.2674 C.3     1  UNL1        0.0388
     12 C         143.0669  141.9204  169.7024 C.3     1  UNL1        0.0671
     13 S         142.1091  142.8366  170.4047 S.3     1  UNL1       -0.0807
     14 C         140.9196  143.3826  169.6721 C.2     1  UNL1        0.1482
     15 N         139.9618  144.2989  170.3744 N.pl3   1  UNL1       -0.3380
     16 N         140.6877  143.0125  168.2371 N.2     1  UNL1       -0.2509
     17 H         140.1139  144.5418  171.3162 H       1  UNL1        0.1442
     18 H         139.1810  144.6572  169.8935 H       1  UNL1        0.1442
     19 C         141.8160  137.7044  164.7628 C.3     1  UNL1        0.0981
     20 N         140.3448  137.4330  164.8718 N.3     1  UNL1       -0.2852
     21 H         140.0529  137.7582  165.7934 H       1  UNL1        0.1239
     22 C         139.3954  138.0358  163.8792 C.3     1  UNL1        0.1855
     23 C         140.2282  137.4957  162.7547 C.3     1  UNL1        0.1674
     24 O         139.2788  138.0985  161.7620 O.3     1  UNL1       -0.3502
     25 C         138.4460  138.6386  162.8866 C.3     1  UNL1        0.1674
     26 C         138.5626  138.5760  165.0038 C.3     1  UNL1        0.4135
     27 F         137.7298  139.1161  166.1284 F       1  UNL1       -0.1684
     28 F         138.6579  139.9516  164.4136 F       1  UNL1       -0.1684
     29 F         138.4674  137.2002  165.5940 F       1  UNL1       -0.1684
@<TRIPOS>BOND
     1    10     9    1
     2    10     1    1
     3     1     2   ar
     4     2     3   ar
     5     3    19    1
     6    19    20    1
     7    20    22    1
     8    22    26    1
     9    26    27    1
    10    26    28    1
    11    26    29    1
    12    22    23    1
    13    23    24    1
    14    24    25    1
    15     3     4   ar
    16     4     5    1
    17     4     6   ar
    18     6     7   ar
    19     7     8    1
    20    10    11    1
    21    11    12    1
    22    12    13    1
    23    13    14    1
    24    14    15    1
    25    14    16    2
    26    16    10    1
    27     7     1   ar
    28    25    22    1
    29    20    21    1
    30    15    17    1
    31    15    18    1
@<TRIPOS>MOLECULE
*****
 29 31 0 0 0
SMALL
GASTEIGER

@<TRIPOS>ATOM
      1 C         140.3385  140.7965  166.3834 C.ar    1  UNL1        0.0252
      2 C         140.5716  141.4933  165.0758 C.ar    1  UNL1       -0.0009
      3 C         139.5780  141.3489  163.9614 C.ar    1  UNL1        0.0210
      4 C         138.3513  140.5077  164.1547 C.ar    1  UNL1        0.1397
      5 F         137.3576  140.3633  163.0402 F       1  UNL1       -0.2044
      6 C         138.1181  139.8108  165.4624 C.ar    1  UNL1        0.0587
      7 C         139.1117  139.9552  166.5767 C.ar    1  UNL1        0.1401
      8 F         138.8786  139.2583  167.8845 F       1  UNL1       -0.2044
      9 C         141.8732  139.7151  166.8236 C.3     1  UNL1        0.0291
     10 C         141.3321  140.9408  167.4979 C.3     1  UNL1        0.1080
     11 C         140.4459  142.1164  167.7852 C.3     1  UNL1        0.0388
     12 C         140.7412  143.0107  168.9527 C.3     1  UNL1        0.0671
     13 S         141.9228  142.7293  169.8329 S.3     1  UNL1       -0.0807
     14 C         142.8090  141.5537  169.5456 C.2     1  UNL1        0.1482
     15 N         143.9905  141.2724  170.4259 N.pl3   1  UNL1       -0.3380
     16 N         142.5137  140.6595  168.3781 N.2     1  UNL1       -0.2509
     17 H         144.1844  141.8593  171.1922 H       1  UNL1        0.1442
     18 H         144.5722  140.5008  170.2373 H       1  UNL1        0.1442
     19 C         139.8112  142.0458  162.6537 C.3     1  UNL1        0.0981
     20 N         138.9084  143.1661  162.2295 N.3     1  UNL1       -0.2852
     21 H         138.1180  143.1675  162.8742 H       1  UNL1        0.1239
     22 C         139.4297  144.5717  162.1804 C.3     1  UNL1        0.1855
     23 C         139.9261  144.3388  160.7842 C.3     1  UNL1        0.1674
     24 O         140.4474  145.7445  160.7351 O.3     1  UNL1       -0.3502
     25 C         139.9510  145.9774  162.1312 C.3     1  UNL1        0.1674
     26 C         138.9332  144.8046  163.5765 C.3     1  UNL1        0.4135
     27 F         138.4367  145.0375  164.9727 F       1  UNL1       -0.1684
     28 F         140.3346  145.0932  164.0267 F       1  UNL1       -0.1684
     29 F         137.5317  144.5160  163.1263 F       1  UNL1       -0.1684
@<TRIPOS>BOND
     1    10     9    1
     2    10     1    1
     3     1     2   ar
     4     2     3   ar
     5     3    19    1
     6    19    20    1
     7    20    22    1
     8    22    26    1
     9    26    27    1
    10    26    28    1
    11    26    29    1
    12    22    23    1
    13    23    24    1
    14    24    25    1
    15     3     4   ar
    16     4     5    1
    17     4     6   ar
    18     6     7   ar
    19     7     8    1
    20    10    11    1
    21    11    12    1
    22    12    13    1
    23    13    14    1
    24    14    15    1
    25    14    16    2
    26    16    10    1
    27     7     1   ar
    28    25    22    1
    29    20    21    1
    30    15    17    1
    31    15    18    1
@<TRIPOS>MOLECULE
*****
 29 31 0 0 0
SMALL
GASTEIGER

@<TRIPOS>ATOM
      1 C         141.2381  140.6130  164.9047 C.ar    1  UNL1        0.0252
      2 C         141.4379  140.6480  166.3909 C.ar    1  UNL1       -0.0009
      3 C         142.4104  139.7079  167.0392 C.ar    1  UNL1        0.0210
      4 C         143.1830  138.7327  166.2013 C.ar    1  UNL1        0.1397
      5 F         144.1556  137.7925  166.8497 F       1  UNL1       -0.2044
      6 C         142.9832  138.6977  164.7151 C.ar    1  UNL1        0.0587
      7 C         142.0108  139.6379  164.0668 C.ar    1  UNL1        0.1401
      8 F         141.8109  139.6029  162.5805 F       1  UNL1       -0.2044
      9 C         141.4646  142.4487  164.3591 C.3     1  UNL1        0.0291
     10 C         140.2656  141.5532  164.2563 C.3     1  UNL1        0.1080
     11 C         139.4044  140.3312  164.3787 C.3     1  UNL1        0.0388
     12 C         137.9871  140.3604  163.8884 C.3     1  UNL1        0.0671
     13 S         137.4310  141.6116  163.2757 S.3     1  UNL1       -0.0807
     14 C         138.2922  142.8336  163.1534 C.2     1  UNL1        0.1482
     15 N         137.7361  144.0848  162.5407 N.pl3   1  UNL1       -0.3380
     16 N         139.7095  142.8044  163.6436 N.2     1  UNL1       -0.2509
     17 H         136.8059  144.1039  162.2189 H       1  UNL1        0.1442
     18 H         138.3014  144.8868  162.4604 H       1  UNL1        0.1442
     19 C         142.6102  139.7428  168.5255 C.3     1  UNL1        0.0981
     20 N         141.4270  139.6577  169.4435 N.3     1  UNL1       -0.2852
     21 H         141.6216  138.9069  170.1058 H       1  UNL1        0.1239
     22 C         141.0175  140.8530  170.2520 C.3     1  UNL1        0.1855
     23 C         142.4586  141.2357  170.4160 C.3     1  UNL1        0.1674
     24 O         142.0491  142.4310  171.2245 O.3     1  UNL1       -0.3502
     25 C         140.6081  142.0483  171.0605 C.3     1  UNL1        0.1674
     26 C         139.5765  140.4702  170.0880 C.3     1  UNL1        0.4135
     27 F         138.1354  140.0875  169.9239 F       1  UNL1       -0.1684
     28 F         139.6940  139.5298  171.2506 F       1  UNL1       -0.1684
     29 F         139.4591  141.4107  168.9253 F       1  UNL1       -0.1684
@<TRIPOS>BOND
     1    10     9    1
     2    10     1    1
     3     1     2   ar
     4     2     3   ar
     5     3    19    1
     6    19    20    1
     7    20    22    1
     8    22    26    1
     9    26    27    1
    10    26    28    1
    11    26    29    1
    12    22    23    1
    13    23    24    1
    14    24    25    1
    15     3     4   ar
    16     4     5    1
    17     4     6   ar
    18     6     7   ar
    19     7     8    1
    20    10    11    1
    21    11    12    1
    22    12    13    1
    23    13    14    1
    24    14    15    1
    25    14    16    2
    26    16    10    1
    27     7     1   ar
    28    25    22    1
    29    20    21    1
    30    15    17    1
    31    15    18    1
@<TRIPOS>MOLECULE
*****
 29 31 0 0 0
SMALL
GASTEIGER

@<TRIPOS>ATOM
      1 C         141.7192  141.9573  166.5417 C.ar    1  UNL1        0.0252
      2 C         140.7265  141.7335  165.4398 C.ar    1  UNL1       -0.0009
      3 C         141.0481  142.1686  164.0408 C.ar    1  UNL1        0.0210
      4 C         142.3625  142.8274  163.7437 C.ar    1  UNL1        0.1397
      5 F         142.6841  143.2624  162.3446 F       1  UNL1       -0.2044
      6 C         143.3553  143.0512  164.8456 C.ar    1  UNL1        0.0587
      7 C         143.0337  142.6161  166.2446 C.ar    1  UNL1        0.1401
      8 F         144.0265  142.8399  167.3466 F       1  UNL1       -0.2044
      9 C         140.5797  142.7774  167.8638 C.3     1  UNL1        0.0291
     10 C         141.3976  141.5223  167.9408 C.3     1  UNL1        0.1080
     11 C         142.3272  140.4183  167.5320 C.3     1  UNL1        0.0388
     12 C         142.6511  139.3152  168.4954 C.3     1  UNL1        0.0671
     13 S         142.0454  139.3161  169.8677 S.3     1  UNL1       -0.0807
     14 C         141.1159  140.4201  170.2766 C.2     1  UNL1        0.1482
     15 N         140.5102  140.4209  171.6489 N.pl3   1  UNL1       -0.3380
     16 N         140.7920  141.5232  169.3131 N.2     1  UNL1       -0.2509
     17 H         140.7228  139.6969  172.2812 H       1  UNL1        0.1442
     18 H         139.9001  141.1455  171.9172 H       1  UNL1        0.1442
     19 C         140.0553  141.9448  162.9388 C.3     1  UNL1        0.0981
     20 N         138.9188  142.9048  162.7468 N.3     1  UNL1       -0.2852
     21 H         138.3794  142.8994  163.6125 H       1  UNL1        0.1239
     22 C         139.1980  144.3418  162.4197 C.3     1  UNL1        0.1855
     23 C         139.5859  143.9488  161.0250 C.3     1  UNL1        0.1674
     24 O         139.8651  145.3859  160.6977 O.3     1  UNL1       -0.3502
     25 C         139.4773  145.7788  162.0924 C.3     1  UNL1        0.1674
     26 C         138.8102  144.7347  163.8143 C.3     1  UNL1        0.4135
     27 F         138.4223  145.1276  165.2091 F       1  UNL1       -0.1684
     28 F         140.1860  145.2876  164.0411 F       1  UNL1       -0.1684
     29 F         137.4344  144.1817  163.5875 F       1  UNL1       -0.1684
@<TRIPOS>BOND
     1    10     9    1
     2    10     1    1
     3     1     2   ar
     4     2     3   ar
     5     3    19    1
     6    19    20    1
     7    20    22    1
     8    22    26    1
     9    26    27    1
    10    26    28    1
    11    26    29    1
    12    22    23    1
    13    23    24    1
    14    24    25    1
    15     3     4   ar
    16     4     5    1
    17     4     6   ar
    18     6     7   ar
    19     7     8    1
    20    10    11    1
    21    11    12    1
    22    12    13    1
    23    13    14    1
    24    14    15    1
    25    14    16    2
    26    16    10    1
    27     7     1   ar
    28    25    22    1
    29    20    21    1
    30    15    17    1
    31    15    18    1
@<TRIPOS>MOLECULE
*****
 29 31 0 0 0
SMALL
GASTEIGER

@<TRIPOS>ATOM
      1 C         138.9401  141.5791  163.6799 C.ar    1  UNL1        0.0252
      2 C         139.2049  141.4274  165.1485 C.ar    1  UNL1       -0.0009
      3 C         139.1321  140.0724  165.7876 C.ar    1  UNL1        0.0210
      4 C         138.7944  138.8691  164.9582 C.ar    1  UNL1        0.1397
      5 F         138.7216  137.5140  165.5974 F       1  UNL1       -0.2044
      6 C         138.5296  139.0208  163.4896 C.ar    1  UNL1        0.0587
      7 C         138.6024  140.3758  162.8504 C.ar    1  UNL1        0.1401
      8 F         138.3376  140.5275  161.3818 F       1  UNL1       -0.2044
      9 C         137.5470  142.8717  163.3525 C.3     1  UNL1        0.0291
     10 C         139.0129  142.9342  163.0407 C.3     1  UNL1        0.1080
     11 C         140.4535  142.5261  162.9509 C.3     1  UNL1        0.0388
     12 C         141.4578  143.4513  162.3301 C.3     1  UNL1        0.0671
     13 S         141.0215  144.7847  161.7992 S.3     1  UNL1       -0.0807
     14 C         139.5809  145.1928  161.8891 C.2     1  UNL1        0.1482
     15 N         139.1445  146.5261  161.3581 N.pl3   1  UNL1       -0.3380
     16 N         138.5766  144.2676  162.5098 N.2     1  UNL1       -0.2509
     17 H         139.8037  147.1334  160.9507 H       1  UNL1        0.1442
     18 H         138.1990  146.7940  161.4171 H       1  UNL1        0.1442
     19 C         139.3969  139.9206  167.2563 C.3     1  UNL1        0.0981
     20 N         140.6933  140.4010  167.8382 N.3     1  UNL1       -0.2852
     21 H         141.2015  140.8626  167.0838 H       1  UNL1        0.1239
     22 C         140.6881  141.3491  169.0004 C.3     1  UNL1        0.1855
     23 C         139.4255  140.7189  169.5089 C.3     1  UNL1        0.1674
     24 O         139.4203  141.6671  170.6713 O.3     1  UNL1       -0.3502
     25 C         140.6829  142.2973  170.1628 C.3     1  UNL1        0.1674
     26 C         141.9507  141.9793  168.4919 C.3     1  UNL1        0.4135
     27 F         143.2134  142.6096  167.9834 F       1  UNL1       -0.1684
     28 F         142.7501  141.1601  169.4614 F       1  UNL1       -0.1684
     29 F         141.1513  142.7986  167.5225 F       1  UNL1       -0.1684
@<TRIPOS>BOND
     1    10     9    1
     2    10     1    1
     3     1     2   ar
     4     2     3   ar
     5     3    19    1
     6    19    20    1
     7    20    22    1
     8    22    26    1
     9    26    27    1
    10    26    28    1
    11    26    29    1
    12    22    23    1
    13    23    24    1
    14    24    25    1
    15     3     4   ar
    16     4     5    1
    17     4     6   ar
    18     6     7   ar
    19     7     8    1
    20    10    11    1
    21    11    12    1
    22    12    13    1
    23    13    14    1
    24    14    15    1
    25    14    16    2
    26    16    10    1
    27     7     1   ar
    28    25    22    1
    29    20    21    1
    30    15    17    1
    31    15    18    1
@<TRIPOS>MOLECULE
*****
 29 31 0 0 0
SMALL
GASTEIGER

@<TRIPOS>ATOM
      1 C         139.6366  139.5415  163.7210 C.ar    1  UNL1        0.0252
      2 C         139.4898  140.8496  163.0017 C.ar    1  UNL1       -0.0009
      3 C         138.5779  140.9550  161.8155 C.ar    1  UNL1        0.0210
      4 C         137.8126  139.7524  161.3485 C.ar    1  UNL1        0.1397
      5 F         136.9007  139.8578  160.1622 F       1  UNL1       -0.2044
      6 C         137.9594  138.4443  162.0678 C.ar    1  UNL1        0.0587
      7 C         138.8713  138.3389  163.2540 C.ar    1  UNL1        0.1401
      8 F         139.0181  137.0307  163.9733 F       1  UNL1       -0.2044
      9 C         139.2797  139.8527  165.5904 C.3     1  UNL1        0.0291
     10 C         140.5485  139.4360  164.9073 C.3     1  UNL1        0.1080
     11 C         141.5006  139.0561  163.8123 C.3     1  UNL1        0.0388
     12 C         142.9240  138.7153  164.1407 C.3     1  UNL1        0.0671
     13 S         143.3953  138.7545  165.5642 S.3     1  UNL1       -0.0807
     14 C         142.4432  139.1345  166.6592 C.2     1  UNL1        0.1482
     15 N         142.9145  139.1737  168.0828 N.pl3   1  UNL1       -0.3380
     16 N         141.0198  139.4753  166.3308 N.2     1  UNL1       -0.2509
     17 H         143.8487  138.9501  168.2984 H       1  UNL1        0.1442
     18 H         142.2896  139.4232  168.8015 H       1  UNL1        0.1442
     19 C         138.4311  142.2631  161.0962 C.3     1  UNL1        0.0981
     20 N         138.1339  143.5144  161.8683 N.3     1  UNL1       -0.2852
     21 H         137.7029  143.2235  162.7458 H       1  UNL1        0.1239
     22 C         139.2443  144.4582  162.2232 C.3     1  UNL1        0.1855
     23 C         139.8157  144.3043  160.8449 C.3     1  UNL1        0.1674
     24 O         140.9262  145.2482  161.1997 O.3     1  UNL1       -0.3502
     25 C         140.3548  145.4022  162.5780 C.3     1  UNL1        0.1674
     26 C         138.6730  144.6122  163.6015 C.3     1  UNL1        0.4135
     27 F         138.1016  144.7661  164.9799 F       1  UNL1       -0.1684
     28 F         137.2864  144.5788  163.0304 F       1  UNL1       -0.1684
     29 F         140.0597  144.6455  164.1725 F       1  UNL1       -0.1684
@<TRIPOS>BOND
     1    10     9    1
     2    10     1    1
     3     1     2   ar
     4     2     3   ar
     5     3    19    1
     6    19    20    1
     7    20    22    1
     8    22    26    1
     9    26    27    1
    10    26    28    1
    11    26    29    1
    12    22    23    1
    13    23    24    1
    14    24    25    1
    15     3     4   ar
    16     4     5    1
    17     4     6   ar
    18     6     7   ar
    19     7     8    1
    20    10    11    1
    21    11    12    1
    22    12    13    1
    23    13    14    1
    24    14    15    1
    25    14    16    2
    26    16    10    1
    27     7     1   ar
    28    25    22    1
    29    20    21    1
    30    15    17    1
    31    15    18    1
