@<TRIPOS>MOLECULE
*****
 30 34 0 0 0
SMALL
GASTEIGER

@<TRIPOS>ATOM
      1 N         140.1803  144.6629  161.7618 N.3     1  UNL1       -0.2689
      2 C         140.9922  144.9408  162.9920 C.3     1  UNL1        0.0724
      3 C         140.8528  144.0592  164.1976 C.3     1  UNL1        0.0175
      4 C         139.9014  142.8998  164.1729 C.3     1  UNL1        0.0060
      5 C         139.0895  142.6218  162.9427 C.3     1  UNL1        0.0175
      6 C         139.2289  143.5034  161.7371 C.3     1  UNL1        0.0724
      7 C         140.7134  143.1777  165.4032 C.3     1  UNL1        0.0217
      8 C         140.5740  142.2961  166.6088 C.3     1  UNL1        0.0937
      9 N         139.6227  141.1366  166.5841 N.am    1  UNL1       -0.2761
     10 C         139.4833  140.2550  167.7897 C.2     1  UNL1        0.2491
     11 O         138.5320  139.0956  167.7650 O.2     1  UNL1       -0.2699
     12 C         138.8107  140.8587  165.3538 C.3     1  UNL1        0.0937
     13 C         138.9501  141.7403  164.1482 C.3     1  UNL1        0.0217
     14 C         140.2952  140.5330  169.0199 C.ar    1  UNL1        0.0567
     15 C         139.8030  141.5205  170.0361 C.ar    1  UNL1        0.0252
     16 C         140.6150  141.7984  171.2663 C.ar    1  UNL1        0.0990
     17 N         141.9191  141.0888  171.4804 N.ar    1  UNL1       -0.2423
     18 C         142.4112  140.1013  170.4643 C.ar    1  UNL1        0.0990
     19 C         141.5992  139.8234  169.2340 C.ar    1  UNL1        0.0252
     20 C         140.3196  145.5444  160.5562 C.3     1  UNL1        0.1022
     21 C         139.0792  147.7009  155.1807 C.3     1  UNL1        0.0476
     22 C         139.8811  146.7793  156.0512 C.3     1  UNL1        0.1704
     23 C         140.9551  145.8406  155.5872 C.3     1  UNL1        0.0729
     24 C         141.4876  145.1157  156.7876 C.ar    1  UNL1        0.0151
     25 C         142.5545  144.0722  156.9385 C.ar    1  UNL1       -0.0012
     26 C         142.8765  143.5195  158.2952 C.ar    1  UNL1       -0.0004
     27 C         142.1315  144.0102  159.5012 C.ar    1  UNL1        0.0001
     28 C         141.0646  145.0537  159.3503 C.ar    1  UNL1        0.0275
     29 C         140.7426  145.6065  157.9935 C.ar    1  UNL1        0.1317
     30 O         139.7498  146.6346  157.5384 O.3     1  UNL1       -0.4794
@<TRIPOS>BOND
     1    21    22    1
     2    22    23    1
     3    23    24    1
     4    24    25   ar
     5    25    26   ar
     6    26    27   ar
     7    27    28   ar
     8    28    20    1
     9    20     1    1
    10     1     2    1
    11     2     3    1
    12     3     4    1
    13     4     5    1
    14     5     6    1
    15     4     7    1
    16     7     8    1
    17     8     9    1
    18     9    10   am
    19    10    11    2
    20    10    14    1
    21    14    15   ar
    22    15    16   ar
    23    16    17   ar
    24    17    18   ar
    25    18    19   ar
    26     9    12    1
    27    12    13    1
    28    28    29   ar
    29    29    30    1
    30    30    22    1
    31    29    24   ar
    32     6     1    1
    33    19    14   ar
    34    13     4    1
@<TRIPOS>MOLECULE
*****
 30 34 0 0 0
SMALL
GASTEIGER

@<TRIPOS>ATOM
      1 N         140.0282  144.8598  161.8758 N.3     1  UNL1       -0.2689
      2 C         140.8298  145.1334  163.1137 C.3     1  UNL1        0.0724
      3 C         140.7224  144.2152  164.2949 C.3     1  UNL1        0.0175
      4 C         139.8133  143.0234  164.2382 C.3     1  UNL1        0.0060
      5 C         139.0117  142.7498  163.0003 C.3     1  UNL1        0.0175
      6 C         139.1192  143.6680  161.8191 C.3     1  UNL1        0.0724
      7 C         140.6149  143.2970  165.4762 C.3     1  UNL1        0.0217
      8 C         140.5075  142.3789  166.6575 C.3     1  UNL1        0.0937
      9 N         139.5984  141.1870  166.6008 N.am    1  UNL1       -0.2761
     10 C         139.4910  140.2688  167.7821 C.2     1  UNL1        0.2491
     11 O         138.5820  139.0770  167.7254 O.2     1  UNL1       -0.2699
     12 C         138.7968  140.9134  165.3628 C.3     1  UNL1        0.0937
     13 C         138.9043  141.8316  164.1815 C.3     1  UNL1        0.0217
     14 C         140.2926  140.5425  169.0200 C.ar    1  UNL1        0.0567
     15 C         141.5926  139.8286  169.2448 C.ar    1  UNL1        0.0252
     16 C         142.3942  140.1023  170.4827 C.ar    1  UNL1        0.0990
     17 N         141.8958  141.0898  171.4960 N.ar    1  UNL1       -0.2423
     18 C         140.5958  141.8036  171.2712 C.ar    1  UNL1        0.0990
     19 C         139.7942  141.5299  170.0332 C.ar    1  UNL1        0.0252
     20 C         140.1357  145.7780  160.6944 C.3     1  UNL1        0.1022
     21 C         144.8257  142.1653  160.8859 C.3     1  UNL1        0.0476
     22 C         143.8245  142.9437  160.0847 C.3     1  UNL1        0.1704
     23 C         143.7542  143.0119  158.5879 C.3     1  UNL1        0.0729
     24 C         142.6041  143.9009  158.2179 C.ar    1  UNL1        0.0151
     25 C         142.0574  144.3344  156.8901 C.ar    1  UNL1       -0.0012
     26 C         140.8701  145.2491  156.8304 C.ar    1  UNL1       -0.0004
     27 C         140.2294  145.7303  158.0985 C.ar    1  UNL1        0.0001
     28 C         140.7762  145.2968  159.4263 C.ar    1  UNL1        0.0275
     29 C         141.9636  144.3821  159.4860 C.ar    1  UNL1        0.1317
     30 O         142.7177  143.7905  160.6398 O.3     1  UNL1       -0.4794
@<TRIPOS>BOND
     1    21    22    1
     2    22    23    1
     3    23    24    1
     4    24    25   ar
     5    25    26   ar
     6    26    27   ar
     7    27    28   ar
     8    28    20    1
     9    20     1    1
    10     1     2    1
    11     2     3    1
    12     3     4    1
    13     4     5    1
    14     5     6    1
    15     4     7    1
    16     7     8    1
    17     8     9    1
    18     9    10   am
    19    10    11    2
    20    10    14    1
    21    14    15   ar
    22    15    16   ar
    23    16    17   ar
    24    17    18   ar
    25    18    19   ar
    26     9    12    1
    27    12    13    1
    28    28    29   ar
    29    29    30    1
    30    30    22    1
    31    29    24   ar
    32     6     1    1
    33    19    14   ar
    34    13     4    1
@<TRIPOS>MOLECULE
*****
 30 34 0 0 0
SMALL
GASTEIGER

@<TRIPOS>ATOM
      1 N         142.9633  139.8946  160.8670 N.3     1  UNL1       -0.2689
      2 C         142.5794  141.1400  161.6095 C.3     1  UNL1        0.0724
      3 C         142.5221  141.1320  163.1084 C.3     1  UNL1        0.0175
      4 C         142.8488  139.8784  163.8647 C.3     1  UNL1        0.0060
      5 C         143.2328  138.6330  163.1221 C.3     1  UNL1        0.0175
      6 C         143.2900  138.6411  161.6233 C.3     1  UNL1        0.0724
      7 C         142.4648  141.1239  164.6073 C.3     1  UNL1        0.0217
      8 C         142.4076  141.1158  166.1062 C.3     1  UNL1        0.0937
      9 N         142.7343  139.8623  166.8625 N.am    1  UNL1       -0.2761
     10 C         142.6771  139.8543  168.3614 C.2     1  UNL1        0.2491
     11 O         143.0038  138.6008  169.1177 O.2     1  UNL1       -0.2699
     12 C         143.1183  138.6169  166.1199 C.3     1  UNL1        0.0937
     13 C         143.1756  138.6249  164.6210 C.3     1  UNL1        0.0217
     14 C         142.2931  141.0997  169.1040 C.ar    1  UNL1        0.0567
     15 C         140.8478  141.4785  169.2364 C.ar    1  UNL1        0.0252
     16 C         140.4638  142.7239  169.9789 C.ar    1  UNL1        0.0990
     17 N         141.5252  143.5906  170.5891 N.ar    1  UNL1       -0.2423
     18 C         142.9705  143.2119  170.4567 C.ar    1  UNL1        0.0990
     19 C         143.3545  141.9664  169.7141 C.ar    1  UNL1        0.0252
     20 C         143.0206  139.9026  159.3680 C.3     1  UNL1        0.1022
     21 C         143.7848  135.0541  156.0526 C.3     1  UNL1        0.0476
     22 C         142.8911  136.1477  156.5581 C.3     1  UNL1        0.1704
     23 C         141.4441  136.3353  156.2104 C.3     1  UNL1        0.0729
     24 C         140.9462  137.5491  156.9375 C.ar    1  UNL1        0.0151
     25 C         139.6026  138.2148  156.9767 C.ar    1  UNL1       -0.0012
     26 C         139.3983  139.4431  157.8130 C.ar    1  UNL1       -0.0004
     27 C         140.5377  140.0058  158.6102 C.ar    1  UNL1        0.0001
     28 C         141.8813  139.3401  158.5710 C.ar    1  UNL1        0.0275
     29 C         142.0855  138.1117  157.7346 C.ar    1  UNL1        0.1317
     30 O         143.2875  137.2456  157.5001 O.3     1  UNL1       -0.4794
@<TRIPOS>BOND
     1    21    22    1
     2    22    23    1
     3    23    24    1
     4    24    25   ar
     5    25    26   ar
     6    26    27   ar
     7    27    28   ar
     8    28    20    1
     9    20     1    1
    10     1     2    1
    11     2     3    1
    12     3     4    1
    13     4     5    1
    14     5     6    1
    15     4     7    1
    16     7     8    1
    17     8     9    1
    18     9    10   am
    19    10    11    2
    20    10    14    1
    21    14    15   ar
    22    15    16   ar
    23    16    17   ar
    24    17    18   ar
    25    18    19   ar
    26     9    12    1
    27    12    13    1
    28    28    29   ar
    29    29    30    1
    30    30    22    1
    31    29    24   ar
    32     6     1    1
    33    19    14   ar
    34    13     4    1
@<TRIPOS>MOLECULE
*****
 30 34 0 0 0
SMALL
GASTEIGER

@<TRIPOS>ATOM
      1 N         139.2478  139.4850  161.1494 N.3     1  UNL1       -0.2689
      2 C         140.1527  140.5275  161.7362 C.3     1  UNL1        0.0724
      3 C         140.2259  140.7056  163.2238 C.3     1  UNL1        0.0175
      4 C         139.3943  139.8412  164.1245 C.3     1  UNL1        0.0060
      5 C         138.4895  138.7987  163.5376 C.3     1  UNL1        0.0175
      6 C         138.4163  138.6206  162.0501 C.3     1  UNL1        0.0724
      7 C         140.2992  140.8837  164.7114 C.3     1  UNL1        0.0217
      8 C         140.3724  141.0618  166.1990 C.3     1  UNL1        0.0937
      9 N         139.5409  140.1974  167.0997 N.am    1  UNL1       -0.2761
     10 C         139.6141  140.3756  168.5873 C.2     1  UNL1        0.2491
     11 O         138.7826  139.5112  169.4880 O.2     1  UNL1       -0.2699
     12 C         138.6360  139.1549  166.5128 C.3     1  UNL1        0.0937
     13 C         138.5628  138.9768  165.0252 C.3     1  UNL1        0.0217
     14 C         140.5190  141.4181  169.1741 C.ar    1  UNL1        0.0567
     15 C         141.9672  141.1071  169.4106 C.ar    1  UNL1        0.0252
     16 C         142.8720  142.1496  169.9975 C.ar    1  UNL1        0.0990
     17 N         142.3286  143.5032  170.3479 N.ar    1  UNL1       -0.2423
     18 C         140.8804  143.8141  170.1114 C.ar    1  UNL1        0.0990
     19 C         139.9756  142.7715  169.5245 C.ar    1  UNL1        0.0252
     20 C         139.1746  139.3068  159.6617 C.3     1  UNL1        0.1022
     21 C         138.3090  137.2573  154.1722 C.3     1  UNL1        0.0476
     22 C         139.2087  137.4363  155.3591 C.3     1  UNL1        0.1704
     23 C         140.6263  136.9592  155.4708 C.3     1  UNL1        0.0729
     24 C         141.1424  137.3520  156.8234 C.ar    1  UNL1        0.0151
     25 C         142.4708  137.1471  157.4892 C.ar    1  UNL1       -0.0012
     26 C         142.7006  137.6621  158.8791 C.ar    1  UNL1       -0.0004
     27 C         141.6018  138.3820  159.6033 C.ar    1  UNL1        0.0001
     28 C         140.2733  138.5869  158.9376 C.ar    1  UNL1        0.0275
     29 C         140.0436  138.0718  157.5476 C.ar    1  UNL1        0.1317
     30 O         138.8485  138.1240  156.6426 O.3     1  UNL1       -0.4794
@<TRIPOS>BOND
     1    21    22    1
     2    22    23    1
     3    23    24    1
     4    24    25   ar
     5    25    26   ar
     6    26    27   ar
     7    27    28   ar
     8    28    20    1
     9    20     1    1
    10     1     2    1
    11     2     3    1
    12     3     4    1
    13     4     5    1
    14     5     6    1
    15     4     7    1
    16     7     8    1
    17     8     9    1
    18     9    10   am
    19    10    11    2
    20    10    14    1
    21    14    15   ar
    22    15    16   ar
    23    16    17   ar
    24    17    18   ar
    25    18    19   ar
    26     9    12    1
    27    12    13    1
    28    28    29   ar
    29    29    30    1
    30    30    22    1
    31    29    24   ar
    32     6     1    1
    33    19    14   ar
    34    13     4    1
@<TRIPOS>MOLECULE
*****
 30 34 0 0 0
SMALL
GASTEIGER

@<TRIPOS>ATOM
      1 N         138.4927  139.1077  165.6197 N.3     1  UNL1       -0.2689
      2 C         138.0849  140.3773  164.9328 C.3     1  UNL1        0.0724
      3 C         138.1590  140.4785  163.4381 C.3     1  UNL1        0.0175
      4 C         138.6409  139.3101  162.6303 C.3     1  UNL1        0.0060
      5 C         139.0487  138.0405  163.3171 C.3     1  UNL1        0.0175
      6 C         138.9746  137.9393  164.8118 C.3     1  UNL1        0.0724
      7 C         138.2331  140.5797  161.9433 C.3     1  UNL1        0.0217
      8 C         138.3072  140.6809  160.4486 C.3     1  UNL1        0.0937
      9 N         138.7891  139.5125  159.6408 N.am    1  UNL1       -0.2761
     10 C         138.8632  139.6138  158.1460 C.2     1  UNL1        0.2491
     11 O         139.3451  138.4454  157.3381 O.2     1  UNL1       -0.2699
     12 C         139.1969  138.2430  160.3276 C.3     1  UNL1        0.0937
     13 C         139.1228  138.1417  161.8224 C.3     1  UNL1        0.0217
     14 C         138.4554  140.8834  157.4591 C.ar    1  UNL1        0.0567
     15 C         137.0700  141.0227  156.9012 C.ar    1  UNL1        0.0252
     16 C         136.6622  142.2923  156.2143 C.ar    1  UNL1        0.0990
     17 N         137.6399  143.4227  156.0854 N.ar    1  UNL1       -0.2423
     18 C         139.0253  143.2834  156.6433 C.ar    1  UNL1        0.0990
     19 C         139.4330  142.0137  157.3302 C.ar    1  UNL1        0.0252
     20 C         138.4186  139.0064  167.1145 C.3     1  UNL1        0.1022
     21 C         143.6601  140.8732  165.0831 C.3     1  UNL1        0.0476
     22 C         142.6397  140.8298  166.1818 C.3     1  UNL1        0.1704
     23 C         142.7548  141.4997  167.5190 C.3     1  UNL1        0.0729
     24 C         141.5113  141.1928  168.2997 C.ar    1  UNL1        0.0151
     25 C         141.0694  141.5850  169.6785 C.ar    1  UNL1       -0.0012
     26 C         139.7440  141.1176  170.2026 C.ar    1  UNL1       -0.0004
     27 C         138.8603  140.2581  169.3479 C.ar    1  UNL1        0.0001
     28 C         139.3022  139.8659  167.9691 C.ar    1  UNL1        0.0275
     29 C         140.6277  140.3333  167.4450 C.ar    1  UNL1        0.1317
     30 O         141.3250  140.1090  166.1361 O.3     1  UNL1       -0.4794
@<TRIPOS>BOND
     1    21    22    1
     2    22    23    1
     3    23    24    1
     4    24    25   ar
     5    25    26   ar
     6    26    27   ar
     7    27    28   ar
     8    28    20    1
     9    20     1    1
    10     1     2    1
    11     2     3    1
    12     3     4    1
    13     4     5    1
    14     5     6    1
    15     4     7    1
    16     7     8    1
    17     8     9    1
    18     9    10   am
    19    10    11    2
    20    10    14    1
    21    14    15   ar
    22    15    16   ar
    23    16    17   ar
    24    17    18   ar
    25    18    19   ar
    26     9    12    1
    27    12    13    1
    28    28    29   ar
    29    29    30    1
    30    30    22    1
    31    29    24   ar
    32     6     1    1
    33    19    14   ar
    34    13     4    1
@<TRIPOS>MOLECULE
*****
 30 34 0 0 0
SMALL
GASTEIGER

@<TRIPOS>ATOM
      1 N         142.7147  138.1240  161.5906 N.3     1  UNL1       -0.2689
      2 C         143.4744  138.9655  162.5728 C.3     1  UNL1        0.0724
      3 C         142.8524  139.3281  163.8886 C.3     1  UNL1        0.0175
      4 C         141.4706  138.8492  164.2224 C.3     1  UNL1        0.0060
      5 C         140.7109  138.0076  163.2402 C.3     1  UNL1        0.0175
      6 C         141.3330  137.6451  161.9244 C.3     1  UNL1        0.0724
      7 C         142.2303  139.6907  165.2046 C.3     1  UNL1        0.0217
      8 C         141.6082  140.0533  166.5205 C.3     1  UNL1        0.0937
      9 N         140.2265  139.5744  166.8542 N.am    1  UNL1       -0.2761
     10 C         139.6044  139.9370  168.1701 C.2     1  UNL1        0.2491
     11 O         138.2227  139.4580  168.5038 O.2     1  UNL1       -0.2699
     12 C         139.4668  138.7328  165.8720 C.3     1  UNL1        0.0937
     13 C         140.0888  138.3702  164.5561 C.3     1  UNL1        0.0217
     14 C         140.3641  140.7785  169.1523 C.ar    1  UNL1        0.0567
     15 C         140.3332  142.2740  169.0403 C.ar    1  UNL1        0.0252
     16 C         141.0929  143.1155  170.0224 C.ar    1  UNL1        0.0990
     17 N         141.8836  142.4616  171.1166 N.ar    1  UNL1       -0.2423
     18 C         141.9145  140.9661  171.2286 C.ar    1  UNL1        0.0990
     19 C         141.1548  140.1245  170.2464 C.ar    1  UNL1        0.0252
     20 C         143.3368  137.7614  160.2747 C.3     1  UNL1        0.1022
     21 C         142.7728  134.2377  155.5471 C.3     1  UNL1        0.0476
     22 C         142.5957  135.5834  156.1857 C.3     1  UNL1        0.1704
     23 C         142.0195  136.8024  155.5284 C.3     1  UNL1        0.0729
     24 C         142.0314  137.9187  156.5302 C.ar    1  UNL1        0.0151
     25 C         141.5863  139.3486  156.4450 C.ar    1  UNL1       -0.0012
     26 C         141.7246  140.2494  157.6363 C.ar    1  UNL1       -0.0004
     27 C         142.3082  139.7204  158.9130 C.ar    1  UNL1        0.0001
     28 C         142.7533  138.2905  158.9982 C.ar    1  UNL1        0.0275
     29 C         142.6149  137.3896  157.8067 C.ar    1  UNL1        0.1317
     30 O         142.9636  135.9464  157.5939 O.3     1  UNL1       -0.4794
@<TRIPOS>BOND
     1    21    22    1
     2    22    23    1
     3    23    24    1
     4    24    25   ar
     5    25    26   ar
     6    26    27   ar
     7    27    28   ar
     8    28    20    1
     9    20     1    1
    10     1     2    1
    11     2     3    1
    12     3     4    1
    13     4     5    1
    14     5     6    1
    15     4     7    1
    16     7     8    1
    17     8     9    1
    18     9    10   am
    19    10    11    2
    20    10    14    1
    21    14    15   ar
    22    15    16   ar
    23    16    17   ar
    24    17    18   ar
    25    18    19   ar
    26     9    12    1
    27    12    13    1
    28    28    29   ar
    29    29    30    1
    30    30    22    1
    31    29    24   ar
    32     6     1    1
    33    19    14   ar
    34    13     4    1
@<TRIPOS>MOLECULE
*****
 30 34 0 0 0
SMALL
GASTEIGER

@<TRIPOS>ATOM
      1 N         143.8054  141.7911  161.2310 N.3     1  UNL1       -0.2689
      2 C         142.8900  142.5700  162.1283 C.3     1  UNL1        0.0724
      3 C         142.6465  142.1080  163.5345 C.3     1  UNL1        0.0175
      4 C         143.3184  140.8671  164.0432 C.3     1  UNL1        0.0060
      5 C         144.2338  140.0883  163.1458 C.3     1  UNL1        0.0175
      6 C         144.4773  140.5503  161.7397 C.3     1  UNL1        0.0724
      7 C         142.4029  141.6460  164.9407 C.3     1  UNL1        0.0217
      8 C         142.1594  141.1840  166.3468 C.3     1  UNL1        0.0937
      9 N         142.8313  139.9431  166.8555 N.am    1  UNL1       -0.2761
     10 C         142.5878  139.4811  168.2617 C.2     1  UNL1        0.2491
     11 O         143.2597  138.2403  168.7704 O.2     1  UNL1       -0.2699
     12 C         143.7467  139.1643  165.9581 C.3     1  UNL1        0.0937
     13 C         143.9903  139.6263  164.5519 C.3     1  UNL1        0.0217
     14 C         141.6723  140.2600  169.1591 C.ar    1  UNL1        0.0567
     15 C         140.1869  140.0797  169.0539 C.ar    1  UNL1        0.0252
     16 C         139.2715  140.8586  169.9513 C.ar    1  UNL1        0.0990
     17 N         139.8415  141.8177  170.9539 N.ar    1  UNL1       -0.2423
     18 C         141.3269  141.9980  171.0591 C.ar    1  UNL1        0.0990
     19 C         142.2423  141.2191  170.1616 C.ar    1  UNL1        0.0252
     20 C         144.0490  142.2531  159.8248 C.3     1  UNL1        0.1022
     21 C         147.9006  142.3093  155.3252 C.3     1  UNL1        0.0476
     22 C         146.6802  141.7285  155.9759 C.3     1  UNL1        0.1704
     23 C         145.8401  140.6100  155.4345 C.3     1  UNL1        0.0729
     24 C         144.7264  140.3545  156.4063 C.ar    1  UNL1        0.0151
     25 C         143.5936  139.3712  156.3988 C.ar    1  UNL1       -0.0012
     26 C         142.6127  139.3486  157.5333 C.ar    1  UNL1       -0.0004
     27 C         142.7644  140.3092  158.6754 C.ar    1  UNL1        0.0001
     28 C         143.8972  141.2925  158.6828 C.ar    1  UNL1        0.0275
     29 C         144.8781  141.3151  157.5482 C.ar    1  UNL1        0.1317
     30 O         146.0856  142.1643  157.2823 O.3     1  UNL1       -0.4794
@<TRIPOS>BOND
     1    21    22    1
     2    22    23    1
     3    23    24    1
     4    24    25   ar
     5    25    26   ar
     6    26    27   ar
     7    27    28   ar
     8    28    20    1
     9    20     1    1
    10     1     2    1
    11     2     3    1
    12     3     4    1
    13     4     5    1
    14     5     6    1
    15     4     7    1
    16     7     8    1
    17     8     9    1
    18     9    10   am
    19    10    11    2
    20    10    14    1
    21    14    15   ar
    22    15    16   ar
    23    16    17   ar
    24    17    18   ar
    25    18    19   ar
    26     9    12    1
    27    12    13    1
    28    28    29   ar
    29    29    30    1
    30    30    22    1
    31    29    24   ar
    32     6     1    1
    33    19    14   ar
    34    13     4    1
@<TRIPOS>MOLECULE
*****
 30 34 0 0 0
SMALL
GASTEIGER

@<TRIPOS>ATOM
      1 N         138.8155  139.7376  161.3888 N.3     1  UNL1       -0.2689
      2 C         138.5247  140.7270  162.4781 C.3     1  UNL1        0.0724
      3 C         139.2650  140.6480  163.7802 C.3     1  UNL1        0.0175
      4 C         140.2962  139.5797  163.9931 C.3     1  UNL1        0.0060
      5 C         140.5871  138.5904  162.9038 C.3     1  UNL1        0.0175
      6 C         139.8467  138.6693  161.6017 C.3     1  UNL1        0.0724
      7 C         140.0054  140.5691  165.0824 C.3     1  UNL1        0.0217
      8 C         140.7458  140.4901  166.3845 C.3     1  UNL1        0.0937
      9 N         141.7770  139.4218  166.5974 N.am    1  UNL1       -0.2761
     10 C         142.5174  139.3428  167.8996 C.2     1  UNL1        0.2491
     11 O         143.5486  138.2745  168.1124 O.2     1  UNL1       -0.2699
     12 C         142.0678  138.4324  165.5081 C.3     1  UNL1        0.0937
     13 C         141.3275  138.5114  164.2059 C.3     1  UNL1        0.0217
     14 C         142.2266  140.3322  168.9889 C.ar    1  UNL1        0.0567
     15 C         142.9713  141.6333  169.0388 C.ar    1  UNL1        0.0252
     16 C         142.6805  142.6226  170.1280 C.ar    1  UNL1        0.0990
     17 N         141.6448  142.3109  171.1675 N.ar    1  UNL1       -0.2423
     18 C         140.9001  141.0098  171.1176 C.ar    1  UNL1        0.0990
     19 C         141.1910  140.0204  170.0282 C.ar    1  UNL1        0.0252
     20 C         138.0751  139.8166  160.0866 C.3     1  UNL1        0.1022
     21 C         134.7137  140.5635  155.2671 C.3     1  UNL1        0.0476
     22 C         135.8657  141.0031  156.1214 C.3     1  UNL1        0.1704
     23 C         136.7696  142.1691  155.8506 C.3     1  UNL1        0.0729
     24 C         137.7785  142.2405  156.9583 C.ar    1  UNL1        0.0151
     25 C         138.9163  143.1822  157.2204 C.ar    1  UNL1       -0.0012
     26 C         139.7737  143.0020  158.4379 C.ar    1  UNL1       -0.0004
     27 C         139.4933  141.8801  159.3934 C.ar    1  UNL1        0.0001
     28 C         138.3555  140.9384  159.1312 C.ar    1  UNL1        0.0275
     29 C         137.4981  141.1187  157.9137 C.ar    1  UNL1        0.1317
     30 O         136.3159  140.3539  157.3965 O.3     1  UNL1       -0.4794
@<TRIPOS>BOND
     1    21    22    1
     2    22    23    1
     3    23    24    1
     4    24    25   ar
     5    25    26   ar
     6    26    27   ar
     7    27    28   ar
     8    28    20    1
     9    20     1    1
    10     1     2    1
    11     2     3    1
    12     3     4    1
    13     4     5    1
    14     5     6    1
    15     4     7    1
    16     7     8    1
    17     8     9    1
    18     9    10   am
    19    10    11    2
    20    10    14    1
    21    14    15   ar
    22    15    16   ar
    23    16    17   ar
    24    17    18   ar
    25    18    19   ar
    26     9    12    1
    27    12    13    1
    28    28    29   ar
    29    29    30    1
    30    30    22    1
    31    29    24   ar
    32     6     1    1
    33    19    14   ar
    34    13     4    1
@<TRIPOS>MOLECULE
*****
 30 34 0 0 0
SMALL
GASTEIGER

@<TRIPOS>ATOM
      1 N         142.2698  137.8493  157.6131 N.3     1  UNL1       -0.2689
      2 C         142.7367  137.7141  159.0321 C.3     1  UNL1        0.0724
      3 C         141.9177  138.2899  160.1491 C.3     1  UNL1        0.0175
      4 C         140.6319  139.0008  159.8470 C.3     1  UNL1        0.0060
      5 C         140.1650  139.1360  158.4280 C.3     1  UNL1        0.0175
      6 C         140.9840  138.5602  157.3110 C.3     1  UNL1        0.0724
      7 C         141.0987  138.8656  161.2662 C.3     1  UNL1        0.0217
      8 C         140.2797  139.4414  162.3832 C.3     1  UNL1        0.0937
      9 N         138.9939  140.1524  162.0811 N.am    1  UNL1       -0.2761
     10 C         138.1749  140.7282  163.1982 C.2     1  UNL1        0.2491
     11 O         136.8891  141.4391  162.8961 O.2     1  UNL1       -0.2699
     12 C         138.5271  140.2875  160.6621 C.3     1  UNL1        0.0937
     13 C         139.3461  139.7118  159.5450 C.3     1  UNL1        0.0217
     14 C         138.6418  140.5930  164.6172 C.ar    1  UNL1        0.0567
     15 C         139.5221  141.6469  165.2208 C.ar    1  UNL1        0.0252
     16 C         139.9889  141.5117  166.6399 C.ar    1  UNL1        0.0990
     17 N         139.5754  140.3226  167.4554 N.ar    1  UNL1       -0.2423
     18 C         138.6951  139.2687  166.8518 C.ar    1  UNL1        0.0990
     19 C         138.2283  139.4039  165.4327 C.ar    1  UNL1        0.0252
     20 C         143.0888  137.2735  156.4960 C.3     1  UNL1        0.1022
     21 C         145.1400  131.9123  157.9570 C.3     1  UNL1        0.0476
     22 C         144.2566  132.7697  157.0999 C.3     1  UNL1        0.1704
     23 C         143.3504  132.2860  156.0068 C.3     1  UNL1        0.0729
     24 C         142.6581  133.4787  155.4169 C.ar    1  UNL1        0.0151
     25 C         141.6540  133.6109  154.3104 C.ar    1  UNL1       -0.0012
     26 C         141.1281  134.9638  153.9325 C.ar    1  UNL1       -0.0004
     27 C         141.6064  136.1848  154.6610 C.ar    1  UNL1        0.0001
     28 C         142.6105  136.0526  155.7675 C.ar    1  UNL1        0.0275
     29 C         143.1364  134.6996  156.1454 C.ar    1  UNL1        0.1317
     30 O         144.1243  134.2614  157.1856 O.3     1  UNL1       -0.4794
@<TRIPOS>BOND
     1    21    22    1
     2    22    23    1
     3    23    24    1
     4    24    25   ar
     5    25    26   ar
     6    26    27   ar
     7    27    28   ar
     8    28    20    1
     9    20     1    1
    10     1     2    1
    11     2     3    1
    12     3     4    1
    13     4     5    1
    14     5     6    1
    15     4     7    1
    16     7     8    1
    17     8     9    1
    18     9    10   am
    19    10    11    2
    20    10    14    1
    21    14    15   ar
    22    15    16   ar
    23    16    17   ar
    24    17    18   ar
    25    18    19   ar
    26     9    12    1
    27    12    13    1
    28    28    29   ar
    29    29    30    1
    30    30    22    1
    31    29    24   ar
    32     6     1    1
    33    19    14   ar
    34    13     4    1
