@<TRIPOS>MOLECULE
*****
 30 34 0 0 0
SMALL
GASTEIGER

@<TRIPOS>ATOM
      1 C         140.5890  140.3732  170.3958 C.3     1  UNL1        0.0438
      2 C         140.8481  141.1163  169.1187 C.3     1  UNL1        0.1398
      3 C         141.8316  141.7996  170.0219 C.3     1  UNL1        0.0438
      4 O         141.4488  142.0966  168.1554 O.3     1  UNL1       -0.4826
      5 C         140.9761  142.1356  166.7324 C.ar    1  UNL1        0.1360
      6 C         141.5768  143.1159  165.7691 C.ar    1  UNL1        0.0366
      7 C         141.1040  143.1549  164.3461 C.ar    1  UNL1        0.0032
      8 C         140.0304  142.2135  163.8864 C.ar    1  UNL1        0.0037
      9 C         139.4297  141.2332  164.8497 C.ar    1  UNL1        0.0008
     10 C         139.9025  141.1942  166.2728 C.ar    1  UNL1        0.0357
     11 C         139.3018  140.2139  167.2361 C.3     1  UNL1        0.1580
     12 C         138.7305  140.1366  165.8513 C.3     1  UNL1        0.2351
     13 O         137.6866  139.0594  165.8399 O.2     1  UNL1       -0.4478
     14 C         137.6128  138.4709  167.2176 C.2     1  UNL1        0.2770
     15 N         136.7008  137.3634  167.6556 N.pl3   1  UNL1       -0.3133
     16 N         138.6110  139.1844  168.0806 N.2     1  UNL1       -0.2202
     17 C         139.7746  140.1749  168.6591 C.3     1  UNL1        0.1141
     18 C         139.9422  140.4484  168.3903 C.3     1  UNL1        0.1501
     19 O         139.7660  140.1609  168.6729 O.3     1  UNL1       -0.3532
     20 C         139.9422  140.4484  168.3903 C.3     1  UNL1        0.1501
     21 H         136.0769  136.9561  167.0122 H       1  UNL1        0.1466
     22 H         136.7263  137.0439  168.5864 H       1  UNL1        0.1466
     23 C         139.5577  142.2525  162.4634 C.ar    1  UNL1        0.0468
     24 C         140.3862  141.6273  161.3804 C.ar    1  UNL1        0.0168
     25 C         139.9134  141.6663  159.9574 C.ar    1  UNL1        0.0770
     26 CL        140.7419  141.0411  158.8745 Cl      1  UNL1       -0.0806
     27 C         138.6121  142.3304  159.6174 C.ar    1  UNL1        0.1126
     28 N         137.7836  142.9556  160.7003 N.ar    1  UNL1       -0.2156
     29 C         138.2564  142.9166  162.1234 C.ar    1  UNL1        0.2223
     30 F         137.4279  143.5417  163.2063 F       1  UNL1       -0.1832
@<TRIPOS>BOND
     1     1     2    1
     2     2     3    1
     3     2     4    1
     4     4     5    1
     5     5     6   ar
     6     6     7   ar
     7     7     8   ar
     8     8    23    1
     9    23    24   ar
    10    24    25   ar
    11    25    26    1
    12    25    27   ar
    13    27    28   ar
    14    28    29   ar
    15    29    30    1
    16     8     9   ar
    17     9    10   ar
    18    10    11    1
    19    11    12    1
    20    12    13    1
    21    13    14    1
    22    14    15    1
    23    14    16    2
    24    11    17    1
    25    17    18    1
    26    18    19    1
    27    19    20    1
    28    17     2    1
    29    10     5   ar
    30    16    11    1
    31    20    17    1
    32    29    23   ar
    33    15    21    1
    34    15    22    1
@<TRIPOS>MOLECULE
*****
 30 34 0 0 0
SMALL
GASTEIGER

@<TRIPOS>ATOM
      1 C         138.0468  141.5194  160.7131 C.3     1  UNL1        0.0438
      2 C         138.2040  140.9004  162.0704 C.3     1  UNL1        0.1398
      3 C         137.4602  139.8033  161.3683 C.3     1  UNL1        0.0438
      4 O         138.1028  139.9003  163.1838 O.3     1  UNL1       -0.4826
      5 C         138.6908  140.2124  164.5280 C.ar    1  UNL1        0.1360
      6 C         138.5896  139.2124  165.6414 C.ar    1  UNL1        0.0366
      7 C         139.1776  139.5245  166.9856 C.ar    1  UNL1        0.0032
      8 C         139.8669  140.8366  167.2164 C.ar    1  UNL1        0.0037
      9 C         139.9681  141.8367  166.1029 C.ar    1  UNL1        0.0008
     10 C         139.3800  141.5245  164.7587 C.ar    1  UNL1        0.0357
     11 C         139.4812  142.5246  163.6453 C.3     1  UNL1        0.1580
     12 C         140.1138  142.9745  164.9289 C.3     1  UNL1        0.2351
     13 O         140.6825  144.3452  164.7099 O.2     1  UNL1       -0.4478
     14 C         140.4014  144.7424  163.2910 C.2     1  UNL1        0.2770
     15 N         140.7938  146.0374  162.6437 N.pl3   1  UNL1       -0.3133
     16 N         139.6590  143.6172  162.6330 N.2     1  UNL1       -0.2202
     17 C         138.8932  142.2125  162.3012 C.3     1  UNL1        0.1141
     18 C         138.8650  141.9335  162.6118 C.3     1  UNL1        0.1501
     19 O         138.8946  142.2267  162.2853 O.3     1  UNL1       -0.3532
     20 C         138.8650  141.9335  162.6118 C.3     1  UNL1        0.1501
     21 H         141.2821  146.7181  163.1608 H       1  UNL1        0.1466
     22 H         140.5630  146.2066  161.7017 H       1  UNL1        0.1466
     23 C         140.4549  141.1487  168.5605 C.ar    1  UNL1        0.0468
     24 C         141.8394  141.7175  168.6598 C.ar    1  UNL1        0.0168
     25 C         142.4274  142.0295  170.0039 C.ar    1  UNL1        0.0770
     26 CL        143.8119  142.5983  170.1031 Cl      1  UNL1       -0.0806
     27 C         141.6311  141.7729  171.2489 C.ar    1  UNL1        0.1126
     28 N         140.2466  141.2041  171.1497 N.ar    1  UNL1       -0.2156
     29 C         139.6585  140.8920  169.8055 C.ar    1  UNL1        0.2223
     30 F         138.2741  140.3233  169.7062 F       1  UNL1       -0.1832
@<TRIPOS>BOND
     1     1     2    1
     2     2     3    1
     3     2     4    1
     4     4     5    1
     5     5     6   ar
     6     6     7   ar
     7     7     8   ar
     8     8    23    1
     9    23    24   ar
    10    24    25   ar
    11    25    26    1
    12    25    27   ar
    13    27    28   ar
    14    28    29   ar
    15    29    30    1
    16     8     9   ar
    17     9    10   ar
    18    10    11    1
    19    11    12    1
    20    12    13    1
    21    13    14    1
    22    14    15    1
    23    14    16    2
    24    11    17    1
    25    17    18    1
    26    18    19    1
    27    19    20    1
    28    17     2    1
    29    10     5   ar
    30    16    11    1
    31    20    17    1
    32    29    23   ar
    33    15    21    1
    34    15    22    1
@<TRIPOS>MOLECULE
*****
 30 34 0 0 0
SMALL
GASTEIGER

@<TRIPOS>ATOM
      1 C         139.5471  141.6042  170.1491 C.3     1  UNL1        0.0438
      2 C         140.4782  141.6481  168.9738 C.3     1  UNL1        0.1398
      3 C         141.0869  142.7198  169.8286 C.3     1  UNL1        0.0438
      4 O         141.6206  142.0642  168.0954 O.3     1  UNL1       -0.4826
      5 C         141.8309  141.3934  166.7704 C.ar    1  UNL1        0.1360
      6 C         142.9734  141.8095  165.8920 C.ar    1  UNL1        0.0366
      7 C         143.1837  141.1387  164.5669 C.ar    1  UNL1        0.0032
      8 C         142.2515  140.0516  164.1203 C.ar    1  UNL1        0.0037
      9 C         141.1090  139.6355  164.9987 C.ar    1  UNL1        0.0008
     10 C         140.8988  140.3064  166.3238 C.ar    1  UNL1        0.0357
     11 C         139.7563  139.8903  167.2022 C.3     1  UNL1        0.1580
     12 C         139.8402  139.1323  165.9104 C.3     1  UNL1        0.2351
     13 O         138.7122  138.1440  165.8788 O.2     1  UNL1       -0.4478
     14 C         137.9312  138.2911  167.1509 C.2     1  UNL1        0.2770
     15 N         136.7180  137.4981  167.5373 N.pl3   1  UNL1       -0.3133
     16 N         138.5765  139.3704  167.9688 N.2     1  UNL1       -0.2202
     17 C         139.5460  140.5611  168.5272 C.3     1  UNL1        0.1141
     18 C         139.8647  140.6772  168.2821 C.3     1  UNL1        0.1501
     19 O         139.5297  140.5552  168.5397 O.3     1  UNL1       -0.3532
     20 C         139.8647  140.6772  168.2821 C.3     1  UNL1        0.1501
     21 H         136.3676  136.8071  166.9299 H       1  UNL1        0.1466
     22 H         136.2722  137.6687  168.3983 H       1  UNL1        0.1466
     23 C         142.4618  139.3808  162.7953 C.ar    1  UNL1        0.0468
     24 C         141.3433  139.3240  161.7974 C.ar    1  UNL1        0.0168
     25 C         141.5536  138.6532  160.4724 C.ar    1  UNL1        0.0770
     26 CL        140.4350  138.5964  159.4746 Cl      1  UNL1       -0.0806
     27 C         142.8824  138.0391  160.1452 C.ar    1  UNL1        0.1126
     28 N         144.0009  138.0958  161.1429 N.ar    1  UNL1       -0.2156
     29 C         143.7907  138.7667  162.4680 C.ar    1  UNL1        0.2223
     30 F         144.9092  138.8234  163.4658 F       1  UNL1       -0.1832
@<TRIPOS>BOND
     1     1     2    1
     2     2     3    1
     3     2     4    1
     4     4     5    1
     5     5     6   ar
     6     6     7   ar
     7     7     8   ar
     8     8    23    1
     9    23    24   ar
    10    24    25   ar
    11    25    26    1
    12    25    27   ar
    13    27    28   ar
    14    28    29   ar
    15    29    30    1
    16     8     9   ar
    17     9    10   ar
    18    10    11    1
    19    11    12    1
    20    12    13    1
    21    13    14    1
    22    14    15    1
    23    14    16    2
    24    11    17    1
    25    17    18    1
    26    18    19    1
    27    19    20    1
    28    17     2    1
    29    10     5   ar
    30    16    11    1
    31    20    17    1
    32    29    23   ar
    33    15    21    1
    34    15    22    1
@<TRIPOS>MOLECULE
*****
 30 34 0 0 0
SMALL
GASTEIGER

@<TRIPOS>ATOM
      1 C         143.1798  142.8769  170.5193 C.3     1  UNL1        0.0438
      2 C         142.0895  142.0401  169.9182 C.3     1  UNL1        0.1398
      3 C         141.7384  141.9207  171.3716 C.3     1  UNL1        0.0438
      4 O         140.8772  141.1619  169.8219 O.3     1  UNL1       -0.4826
      5 C         140.3948  140.6938  168.4810 C.ar    1  UNL1        0.1360
      6 C         139.1826  139.8156  168.3847 C.ar    1  UNL1        0.0366
      7 C         138.7002  139.3474  167.0438 C.ar    1  UNL1        0.0032
      8 C         139.4300  139.7575  165.7991 C.ar    1  UNL1        0.0037
      9 C         140.6422  140.6357  165.8954 C.ar    1  UNL1        0.0008
     10 C         141.1246  141.1038  167.2364 C.ar    1  UNL1        0.0357
     11 C         142.3368  141.9820  167.3326 C.3     1  UNL1        0.1580
     12 C         141.9743  141.5942  165.9296 C.3     1  UNL1        0.2351
     13 O         142.9708  142.2245  165.0023 O.2     1  UNL1       -0.4478
     14 C         143.9492  143.0018  165.8321 C.2     1  UNL1        0.2770
     15 N         145.1147  143.7904  165.3128 N.pl3   1  UNL1       -0.3133
     16 N         143.5574  142.8519  167.2723 N.2     1  UNL1       -0.2202
     17 C         142.8193  142.4502  168.6735 C.3     1  UNL1        0.1141
     18 C         142.4811  142.2052  168.6467 C.3     1  UNL1        0.1501
     19 O         142.8366  142.4627  168.6749 O.3     1  UNL1       -0.3532
     20 C         142.4811  142.2052  168.6467 C.3     1  UNL1        0.1501
     21 H         145.2911  143.8287  164.3450 H       1  UNL1        0.1466
     22 H         145.7032  144.2696  165.9398 H       1  UNL1        0.1466
     23 C         138.9476  139.2893  164.4582 C.ar    1  UNL1        0.0468
     24 C         138.4965  140.2872  163.4331 C.ar    1  UNL1        0.0168
     25 C         138.0141  139.8191  162.0922 C.ar    1  UNL1        0.0770
     26 CL        137.5630  140.8170  161.0672 Cl      1  UNL1       -0.0806
     27 C         137.9827  138.3531  161.7763 C.ar    1  UNL1        0.1126
     28 N         138.4338  137.3552  162.8013 N.ar    1  UNL1       -0.2156
     29 C         138.9162  137.8233  164.1423 C.ar    1  UNL1        0.2223
     30 F         139.3673  136.8254  165.1673 F       1  UNL1       -0.1832
@<TRIPOS>BOND
     1     1     2    1
     2     2     3    1
     3     2     4    1
     4     4     5    1
     5     5     6   ar
     6     6     7   ar
     7     7     8   ar
     8     8    23    1
     9    23    24   ar
    10    24    25   ar
    11    25    26    1
    12    25    27   ar
    13    27    28   ar
    14    28    29   ar
    15    29    30    1
    16     8     9   ar
    17     9    10   ar
    18    10    11    1
    19    11    12    1
    20    12    13    1
    21    13    14    1
    22    14    15    1
    23    14    16    2
    24    11    17    1
    25    17    18    1
    26    18    19    1
    27    19    20    1
    28    17     2    1
    29    10     5   ar
    30    16    11    1
    31    20    17    1
    32    29    23   ar
    33    15    21    1
    34    15    22    1
@<TRIPOS>MOLECULE
*****
 30 34 0 0 0
SMALL
GASTEIGER

@<TRIPOS>ATOM
      1 C         139.7233  138.3109  160.8646 C.3     1  UNL1        0.0438
      2 C         139.3101  138.5464  162.2873 C.3     1  UNL1        0.1398
      3 C         138.0358  137.9784  161.7363 C.3     1  UNL1        0.0438
      4 O         138.4542  138.5846  163.5185 O.3     1  UNL1       -0.4826
      5 C         139.0162  139.1089  164.8066 C.ar    1  UNL1        0.1360
      6 C         138.1603  139.1471  166.0379 C.ar    1  UNL1        0.0366
      7 C         138.7223  139.6715  167.3259 C.ar    1  UNL1        0.0032
      8 C         140.1402  140.1578  167.3828 C.ar    1  UNL1        0.0037
      9 C         140.9961  140.1196  166.1515 C.ar    1  UNL1        0.0008
     10 C         140.4340  139.5952  164.8634 C.ar    1  UNL1        0.0357
     11 C         141.2899  139.5570  163.6321 C.3     1  UNL1        0.1580
     12 C         141.9861  140.1056  164.8423 C.3     1  UNL1        0.2351
     13 O         143.3871  140.4677  164.4468 O.2     1  UNL1       -0.4478
     14 C         143.5567  140.1429  162.9923 C.2     1  UNL1        0.2770
     15 N         144.8035  140.3453  162.1833 N.pl3   1  UNL1       -0.3133
     16 N         142.2606  139.5800  162.4887 N.2     1  UNL1       -0.2202
     17 C         140.7279  139.0326  162.3441 C.3     1  UNL1        0.1141
     18 C         140.4891  139.0433  162.6876 C.3     1  UNL1        0.1501
     19 O         140.7401  139.0321  162.3265 O.3     1  UNL1       -0.3532
     20 C         140.4891  139.0433  162.6876 C.3     1  UNL1        0.1501
     21 H         145.6083  140.7236  162.6056 H       1  UNL1        0.1466
     22 H         144.8169  140.0999  161.2299 H       1  UNL1        0.1466
     23 C         140.7022  140.6821  168.6708 C.ar    1  UNL1        0.0468
     24 C         142.0807  141.2728  168.7024 C.ar    1  UNL1        0.0168
     25 C         142.6427  141.7972  169.9904 C.ar    1  UNL1        0.0770
     26 CL        144.0211  142.3878  170.0219 Cl      1  UNL1       -0.0806
     27 C         141.8262  141.7310  171.2470 C.ar    1  UNL1        0.1126
     28 N         140.4478  141.1403  171.2155 N.ar    1  UNL1       -0.2156
     29 C         139.8857  140.6159  169.9274 C.ar    1  UNL1        0.2223
     30 F         138.5073  140.0253  169.8960 F       1  UNL1       -0.1832
@<TRIPOS>BOND
     1     1     2    1
     2     2     3    1
     3     2     4    1
     4     4     5    1
     5     5     6   ar
     6     6     7   ar
     7     7     8   ar
     8     8    23    1
     9    23    24   ar
    10    24    25   ar
    11    25    26    1
    12    25    27   ar
    13    27    28   ar
    14    28    29   ar
    15    29    30    1
    16     8     9   ar
    17     9    10   ar
    18    10    11    1
    19    11    12    1
    20    12    13    1
    21    13    14    1
    22    14    15    1
    23    14    16    2
    24    11    17    1
    25    17    18    1
    26    18    19    1
    27    19    20    1
    28    17     2    1
    29    10     5   ar
    30    16    11    1
    31    20    17    1
    32    29    23   ar
    33    15    21    1
    34    15    22    1
@<TRIPOS>MOLECULE
*****
 30 34 0 0 0
SMALL
GASTEIGER

@<TRIPOS>ATOM
      1 C         141.7074  142.2467  171.4667 C.3     1  UNL1        0.0438
      2 C         141.9513  142.0518  169.9995 C.3     1  UNL1        0.1398
      3 C         143.1445  142.8892  170.3530 C.3     1  UNL1        0.0438
      4 O         142.6095  142.1478  168.6551 O.3     1  UNL1       -0.4826
      5 C         141.9899  141.4741  167.4668 C.ar    1  UNL1        0.1360
      6 C         142.6482  141.5701  166.1224 C.ar    1  UNL1        0.0366
      7 C         142.0285  140.8964  164.9341 C.ar    1  UNL1        0.0032
      8 C         140.7505  140.1267  165.0901 C.ar    1  UNL1        0.0037
      9 C         140.0922  140.0307  166.4346 C.ar    1  UNL1        0.0008
     10 C         140.7119  140.7044  167.6229 C.ar    1  UNL1        0.0357
     11 C         140.0537  140.6085  168.9673 C.3     1  UNL1        0.1580
     12 C         139.3205  139.8862  167.8760 C.3     1  UNL1        0.2351
     13 O         138.0981  139.2572  168.4764 O.2     1  UNL1       -0.4478
     14 C         138.0758  139.5908  169.9387 C.2     1  UNL1        0.2770
     15 N         137.0289  139.1641  170.9244 N.pl3   1  UNL1       -0.3133
     16 N         139.2844  140.4259  170.2421 N.2     1  UNL1       -0.2202
     17 C         140.6733  141.2822  170.1556 C.3     1  UNL1        0.1141
     18 C         140.8570  141.3089  169.7805 C.3     1  UNL1        0.1501
     19 O         140.6639  141.2808  170.1748 O.3     1  UNL1       -0.3532
     20 C         140.8570  141.3089  169.7805 C.3     1  UNL1        0.1501
     21 H         136.2685  138.6136  170.6277 H       1  UNL1        0.1466
     22 H         137.1020  139.4347  171.8682 H       1  UNL1        0.1466
     23 C         140.1308  139.4530  163.9018 C.ar    1  UNL1        0.0468
     24 C         139.1910  140.2136  163.0140 C.ar    1  UNL1        0.0168
     25 C         138.5713  139.5399  161.8257 C.ar    1  UNL1        0.0770
     26 CL        137.6315  140.3005  160.9379 Cl      1  UNL1       -0.0806
     27 C         138.8915  138.1056  161.5252 C.ar    1  UNL1        0.1126
     28 N         139.8313  137.3450  162.4129 N.ar    1  UNL1       -0.2156
     29 C         140.4510  138.0187  163.6013 C.ar    1  UNL1        0.2223
     30 F         141.3908  137.2581  164.4891 F       1  UNL1       -0.1832
@<TRIPOS>BOND
     1     1     2    1
     2     2     3    1
     3     2     4    1
     4     4     5    1
     5     5     6   ar
     6     6     7   ar
     7     7     8   ar
     8     8    23    1
     9    23    24   ar
    10    24    25   ar
    11    25    26    1
    12    25    27   ar
    13    27    28   ar
    14    28    29   ar
    15    29    30    1
    16     8     9   ar
    17     9    10   ar
    18    10    11    1
    19    11    12    1
    20    12    13    1
    21    13    14    1
    22    14    15    1
    23    14    16    2
    24    11    17    1
    25    17    18    1
    26    18    19    1
    27    19    20    1
    28    17     2    1
    29    10     5   ar
    30    16    11    1
    31    20    17    1
    32    29    23   ar
    33    15    21    1
    34    15    22    1
@<TRIPOS>MOLECULE
*****
 30 34 0 0 0
SMALL
GASTEIGER

@<TRIPOS>ATOM
      1 C         138.3043  142.3616  158.5987 C.3     1  UNL1        0.0438
      2 C         138.3685  141.4265  159.7698 C.3     1  UNL1        0.1398
      3 C         137.9769  140.4634  158.6886 C.3     1  UNL1        0.0438
      4 O         138.2968  140.1569  160.5654 O.3     1  UNL1       -0.4826
      5 C         138.5943  140.1752  162.0355 C.ar    1  UNL1        0.1360
      6 C         138.5226  138.9056  162.8311 C.ar    1  UNL1        0.0366
      7 C         138.8201  138.9239  164.3011 C.ar    1  UNL1        0.0032
      8 C         139.1895  140.2118  164.9757 C.ar    1  UNL1        0.0037
      9 C         139.2612  141.4814  164.1801 C.ar    1  UNL1        0.0008
     10 C         138.9636  141.4631  162.7099 C.ar    1  UNL1        0.0357
     11 C         139.0354  142.7327  161.9143 C.3     1  UNL1        0.1580
     12 C         139.3580  142.9053  163.3691 C.3     1  UNL1        0.2351
     13 O         139.6690  144.3534  163.6063 O.2     1  UNL1       -0.4478
     14 C         139.5386  145.0758  162.2982 C.2     1  UNL1        0.2770
     15 N         139.7608  146.5424  162.0750 N.pl3   1  UNL1       -0.3133
     16 N         139.1470  144.0741  161.2525 N.2     1  UNL1       -0.2202
     17 C         138.7379  142.7144  160.4443 C.3     1  UNL1        0.1141
     18 C         138.7178  142.3602  160.6663 C.3     1  UNL1        0.1501
     19 O         138.7389  142.7325  160.4329 O.3     1  UNL1       -0.3532
     20 C         138.7178  142.3602  160.6663 C.3     1  UNL1        0.1501
     21 H         140.0170  147.1217  162.8286 H       1  UNL1        0.1466
     22 H         139.6503  146.9256  161.1749 H       1  UNL1        0.1466
     23 C         139.4870  140.2301  166.4457 C.ar    1  UNL1        0.0468
     24 C         140.7064  140.9397  166.9554 C.ar    1  UNL1        0.0168
     25 C         141.0040  140.9579  168.4254 C.ar    1  UNL1        0.0770
     26 CL        142.2234  141.6675  168.9350 Cl      1  UNL1       -0.0806
     27 C         140.0822  140.2667  169.3859 C.ar    1  UNL1        0.1126
     28 N         138.8628  139.5572  168.8763 N.ar    1  UNL1       -0.2156
     29 C         138.5652  139.5389  167.4062 C.ar    1  UNL1        0.2223
     30 F         137.3459  138.8294  166.8966 F       1  UNL1       -0.1832
@<TRIPOS>BOND
     1     1     2    1
     2     2     3    1
     3     2     4    1
     4     4     5    1
     5     5     6   ar
     6     6     7   ar
     7     7     8   ar
     8     8    23    1
     9    23    24   ar
    10    24    25   ar
    11    25    26    1
    12    25    27   ar
    13    27    28   ar
    14    28    29   ar
    15    29    30    1
    16     8     9   ar
    17     9    10   ar
    18    10    11    1
    19    11    12    1
    20    12    13    1
    21    13    14    1
    22    14    15    1
    23    14    16    2
    24    11    17    1
    25    17    18    1
    26    18    19    1
    27    19    20    1
    28    17     2    1
    29    10     5   ar
    30    16    11    1
    31    20    17    1
    32    29    23   ar
    33    15    21    1
    34    15    22    1
@<TRIPOS>MOLECULE
*****
 30 34 0 0 0
SMALL
GASTEIGER

@<TRIPOS>ATOM
      1 C         140.2179  140.5049  170.7307 C.3     1  UNL1        0.0438
      2 C         140.8235  141.0372  169.4657 C.3     1  UNL1        0.1398
      3 C         141.6818  141.7346  170.4791 C.3     1  UNL1        0.0438
      4 O         141.7272  141.8117  168.5528 O.3     1  UNL1       -0.4826
      5 C         141.5623  141.7040  167.0658 C.ar    1  UNL1        0.1360
      6 C         142.4660  142.4785  166.1529 C.ar    1  UNL1        0.0366
      7 C         142.3011  142.3707  164.6659 C.ar    1  UNL1        0.0032
      8 C         141.2324  141.4884  164.0918 C.ar    1  UNL1        0.0037
      9 C         140.3287  140.7139  165.0047 C.ar    1  UNL1        0.0008
     10 C         140.4936  140.8217  166.4918 C.ar    1  UNL1        0.0357
     11 C         139.5899  140.0472  167.4047 C.3     1  UNL1        0.1580
     12 C         139.3068  139.8400  165.9463 C.3     1  UNL1        0.2351
     13 O         138.1586  138.8819  165.8285 O.2     1  UNL1       -0.4478
     14 C         137.7321  138.4970  167.2141 C.2     1  UNL1        0.2770
     15 N         136.6169  137.5570  167.5641 N.pl3   1  UNL1       -0.3133
     16 N         138.6167  139.2172  168.1883 N.2     1  UNL1       -0.2202
     17 C         139.7549  140.1550  168.8917 C.3     1  UNL1        0.1141
     18 C         140.0070  140.3711  168.6370 C.3     1  UNL1        0.1501
     19 O         139.7420  140.1439  168.9047 O.3     1  UNL1       -0.3532
     20 C         140.0070  140.3711  168.6370 C.3     1  UNL1        0.1501
     21 H         136.0900  137.1307  166.8500 H       1  UNL1        0.1466
     22 H         136.4118  137.3662  168.5079 H       1  UNL1        0.1466
     23 C         141.0675  141.3807  162.6048 C.ar    1  UNL1        0.0468
     24 C         140.5104  142.5356  161.8263 C.ar    1  UNL1        0.0168
     25 C         140.3455  142.4278  160.3394 C.ar    1  UNL1        0.0770
     26 CL        139.7885  143.5827  159.5609 Cl      1  UNL1       -0.0806
     27 C         140.7376  141.1652  159.6308 C.ar    1  UNL1        0.1126
     28 N         141.2946  140.0103  160.4092 N.ar    1  UNL1       -0.2156
     29 C         141.4595  140.1180  161.8963 C.ar    1  UNL1        0.2223
     30 F         142.0165  138.9632  162.6747 F       1  UNL1       -0.1832
@<TRIPOS>BOND
     1     1     2    1
     2     2     3    1
     3     2     4    1
     4     4     5    1
     5     5     6   ar
     6     6     7   ar
     7     7     8   ar
     8     8    23    1
     9    23    24   ar
    10    24    25   ar
    11    25    26    1
    12    25    27   ar
    13    27    28   ar
    14    28    29   ar
    15    29    30    1
    16     8     9   ar
    17     9    10   ar
    18    10    11    1
    19    11    12    1
    20    12    13    1
    21    13    14    1
    22    14    15    1
    23    14    16    2
    24    11    17    1
    25    17    18    1
    26    18    19    1
    27    19    20    1
    28    17     2    1
    29    10     5   ar
    30    16    11    1
    31    20    17    1
    32    29    23   ar
    33    15    21    1
    34    15    22    1
@<TRIPOS>MOLECULE
*****
 30 34 0 0 0
SMALL
GASTEIGER

@<TRIPOS>ATOM
      1 C         142.2136  141.1302  170.5692 C.3     1  UNL1        0.0438
      2 C         141.1807  140.6045  169.6168 C.3     1  UNL1        0.1398
      3 C         140.6636  140.0329  170.9035 C.3     1  UNL1        0.0438
      4 O         139.9683  139.8803  169.1113 O.3     1  UNL1       -0.4826
      5 C         139.6317  139.9103  167.6499 C.ar    1  UNL1        0.1360
      6 C         138.4193  139.1861  167.1445 C.ar    1  UNL1        0.0366
      7 C         138.0827  139.2161  165.6831 C.ar    1  UNL1        0.0032
      8 C         138.9586  139.9703  164.7270 C.ar    1  UNL1        0.0037
      9 C         140.1711  140.6945  165.2324 C.ar    1  UNL1        0.0008
     10 C         140.5076  140.6645  166.6939 C.ar    1  UNL1        0.0357
     11 C         141.7201  141.3887  167.1994 C.3     1  UNL1        0.1580
     12 C         141.5114  141.5078  165.7187 C.3     1  UNL1        0.2351
     13 O         142.6209  142.3490  165.1604 O.2     1  UNL1       -0.4478
     14 C         143.5151  142.7498  166.2959 C.2     1  UNL1        0.2770
     15 N         144.7494  143.5955  166.1900 N.pl3   1  UNL1       -0.3133
     16 N         142.9584  142.1563  167.5561 N.2     1  UNL1       -0.2202
     17 C         142.0566  141.3587  168.6608 C.3     1  UNL1        0.1141
     18 C         141.7183  141.1567  168.5198 C.3     1  UNL1        0.1501
     19 O         142.0739  141.3691  168.6680 O.3     1  UNL1       -0.3532
     20 C         141.7183  141.1567  168.5198 C.3     1  UNL1        0.1501
     21 H         145.0359  143.9407  165.3136 H       1  UNL1        0.1466
     22 H         145.2731  143.8054  166.9968 H       1  UNL1        0.1466
     23 C         138.6221  140.0003  163.2656 C.ar    1  UNL1        0.0468
     24 C         139.2564  139.0147  162.3294 C.ar    1  UNL1        0.0168
     25 C         138.9199  139.0447  160.8680 C.ar    1  UNL1        0.0770
     26 CL        139.5542  138.0591  159.9320 Cl      1  UNL1       -0.0806
     27 C         137.9489  140.0602  160.3427 C.ar    1  UNL1        0.1126
     28 N         137.3146  141.0458  161.2787 N.ar    1  UNL1       -0.2156
     29 C         137.6511  141.0158  162.7402 C.ar    1  UNL1        0.2223
     30 F         137.0168  142.0014  163.6762 F       1  UNL1       -0.1832
@<TRIPOS>BOND
     1     1     2    1
     2     2     3    1
     3     2     4    1
     4     4     5    1
     5     5     6   ar
     6     6     7   ar
     7     7     8   ar
     8     8    23    1
     9    23    24   ar
    10    24    25   ar
    11    25    26    1
    12    25    27   ar
    13    27    28   ar
    14    28    29   ar
    15    29    30    1
    16     8     9   ar
    17     9    10   ar
    18    10    11    1
    19    11    12    1
    20    12    13    1
    21    13    14    1
    22    14    15    1
    23    14    16    2
    24    11    17    1
    25    17    18    1
    26    18    19    1
    27    19    20    1
    28    17     2    1
    29    10     5   ar
    30    16    11    1
    31    20    17    1
    32    29    23   ar
    33    15    21    1
    34    15    22    1
