@<TRIPOS>MOLECULE
*****
 41 45 0 0 0
SMALL
GASTEIGER

@<TRIPOS>ATOM
      1 C         144.8470  142.5233  161.8481 C.3     1  UNL1        0.0747
      2 C         144.4032  143.8026  162.4933 C.3     1  UNL1        0.0369
      3 C         143.9035  143.7954  163.9076 C.3     1  UNL1        0.0741
      4 N         143.8475  142.5088  164.6767 N.3     1  UNL1       -0.2689
      5 C         144.2913  141.2294  164.0315 C.3     1  UNL1        0.0741
      6 C         144.7910  141.2367  162.6172 C.3     1  UNL1        0.0369
      7 O         142.8998  142.4143  159.5686 O.2     1  UNL1       -0.2668
      8 C         144.3731  142.4760  159.2941 C.2     1  UNL1        0.2806
      9 N         145.3467  142.5305  160.4339 N.am    1  UNL1       -0.2999
     10 H         146.3138  142.5709  160.2537 H       1  UNL1        0.1498
     11 C         144.8729  142.4832  157.8798 C.ar    1  UNL1        0.2014
     12 C         143.9099  142.6694  156.7449 C.ar    1  UNL1        0.0843
     13 C         144.4096  142.6766  155.3307 C.ar    1  UNL1        0.2018
     14 O         143.4465  142.8627  154.1959 O.2     1  UNL1       -0.2864
     15 C         145.8725  142.4977  155.0512 C.ar    1  UNL1        0.0737
     16 C         146.3722  142.5049  153.6370 C.ar    1  UNL1        0.0085
     17 C         147.8350  142.3260  153.3575 C.ar    1  UNL1        0.0299
     18 C         148.7981  142.1398  154.4924 C.ar    1  UNL1        0.1432
     19 F         150.2610  141.9609  154.2129 F       1  UNL1       -0.2041
     20 C         148.2984  142.1326  155.9066 C.ar    1  UNL1        0.0672
     21 C         146.8356  142.3115  156.1860 C.ar    1  UNL1        0.1508
     22 O         146.3357  142.3043  157.6004 O.2     1  UNL1       -0.4486
     23 C         143.3478  142.5016  166.0910 C.3     1  UNL1        0.0992
     24 C         142.1381  141.6926  166.4549 C.ar    1  UNL1       -0.0037
     25 C         142.2135  140.6899  167.5679 C.ar    1  UNL1        0.0003
     26 C         141.0039  139.8810  167.9318 C.ar    1  UNL1        0.0390
     27 C         139.7189  140.0748  167.1827 C.ar    1  UNL1        0.1658
     28 C         139.6435  141.0775  166.0697 C.ar    1  UNL1        0.1735
     29 F         138.3585  141.2713  165.3205 F       1  UNL1       -0.2010
     30 C         140.8531  141.8864  165.7058 C.ar    1  UNL1        0.0299
     31 O         138.5093  139.2658  167.5467 O.3     1  UNL1       -0.4731
     32 C         137.9804  138.2366  166.5923 C.3     1  UNL1        0.2073
     33 C         138.8947  137.6122  165.5802 C.3     1  UNL1        0.0693
     34 C         138.7981  138.0086  164.1368 C.3     1  UNL1        0.1056
     35 N         140.0259  138.0080  163.2751 N.am    1  UNL1       -0.2205
     36 C         140.0505  138.0078  161.7752 C.2     1  UNL1        0.2434
     37 O         138.8516  138.0082  160.8738 O.2     1  UNL1       -0.2735
     38 C         141.4845  138.0072  161.3352 C.3     1  UNL1        0.1519
     39 S         142.3462  138.0069  162.5630 S.3     1  UNL1       -0.0469
     40 C         141.4447  138.0075  163.7619 C.2     1  UNL1        0.2825
     41 O         141.8849  138.0074  165.1959 O.2     1  UNL1       -0.2623
@<TRIPOS>BOND
     1     7     8    2
     2     8     9   am
     3     9     1    1
     4     1     2    1
     5     2     3    1
     6     3     4    1
     7     4    23    1
     8    23    24    1
     9    24    25   ar
    10    25    26   ar
    11    26    27   ar
    12    27    31    1
    13    31    32    1
    14    32    33    1
    15    33    34    1
    16    34    35    1
    17    35    36   am
    18    36    37    2
    19    36    38    1
    20    38    39    1
    21    39    40    1
    22    40    41    2
    23    27    28   ar
    24    28    29    1
    25    28    30   ar
    26     4     5    1
    27     5     6    1
    28     8    11    1
    29    11    12   ar
    30    12    13   ar
    31    13    14    2
    32    13    15   ar
    33    15    16   ar
    34    16    17   ar
    35    17    18   ar
    36    18    19    1
    37    18    20   ar
    38    20    21   ar
    39    21    22   ar
    40     6     1    1
    41    22    11   ar
    42    30    24   ar
    43    21    15   ar
    44    40    35   am
    45     9    10    1
@<TRIPOS>MOLECULE
*****
 41 45 0 0 0
SMALL
GASTEIGER

@<TRIPOS>ATOM
      1 C         143.6909  139.5976  159.5541 C.3     1  UNL1        0.0747
      2 C         143.5019  141.0411  159.1928 C.3     1  UNL1        0.0369
      3 C         143.6259  142.1006  160.2474 C.3     1  UNL1        0.0741
      4 N         143.9389  141.7165  161.6632 N.3     1  UNL1       -0.2689
      5 C         144.1279  140.2730  162.0245 C.3     1  UNL1        0.0741
      6 C         144.0039  139.2135  160.9698 C.3     1  UNL1        0.0369
      7 O         140.9893  138.5167  158.8239 O.2     1  UNL1       -0.2668
      8 C         142.2162  137.9976  158.1345 C.2     1  UNL1        0.2806
      9 N         143.5670  138.5381  158.4995 N.am    1  UNL1       -0.2999
     10 H         144.3722  138.1974  158.0470 H       1  UNL1        0.1498
     11 C         142.0923  136.9381  157.0798 C.ar    1  UNL1        0.2014
     12 C         141.0811  137.0873  155.9820 C.ar    1  UNL1        0.0843
     13 C         140.9571  136.0279  154.9274 C.ar    1  UNL1        0.2018
     14 O         139.9460  136.1771  153.8296 O.2     1  UNL1       -0.2864
     15 C         141.8444  134.8191  154.9707 C.ar    1  UNL1        0.0737
     16 C         141.7205  133.7597  153.9161 C.ar    1  UNL1        0.0085
     17 C         142.6077  132.5510  153.9594 C.ar    1  UNL1        0.0299
     18 C         143.6189  132.4018  155.0572 C.ar    1  UNL1        0.1432
     19 F         144.5061  131.1931  155.1004 F       1  UNL1       -0.2041
     20 C         143.7428  133.4613  156.1118 C.ar    1  UNL1        0.0672
     21 C         142.8556  134.6699  156.0685 C.ar    1  UNL1        0.1508
     22 O         142.9795  135.7295  157.1231 O.2     1  UNL1       -0.4486
     23 C         144.0628  142.7760  162.7178 C.3     1  UNL1        0.0992
     24 C         142.8305  143.3641  163.3387 C.ar    1  UNL1       -0.0037
     25 C         142.2889  144.6703  162.8384 C.ar    1  UNL1        0.0003
     26 C         141.0565  145.2584  163.4593 C.ar    1  UNL1        0.0390
     27 C         140.3658  144.5402  164.5804 C.ar    1  UNL1        0.1658
     28 C         140.9073  143.2339  165.0806 C.ar    1  UNL1        0.1735
     29 F         140.2165  142.5156  166.2018 F       1  UNL1       -0.2010
     30 C         142.1397  142.6458  164.4598 C.ar    1  UNL1        0.0299
     31 O         139.1334  145.1282  165.2013 O.3     1  UNL1       -0.4731
     32 C         137.7928  144.5084  164.9395 C.3     1  UNL1        0.2073
     33 C         137.4973  143.8976  163.6017 C.3     1  UNL1        0.0693
     34 C         137.4723  142.4057  163.4474 C.3     1  UNL1        0.1056
     35 N         138.5751  141.7098  162.7060 N.am    1  UNL1       -0.2205
     36 C         139.1017  142.0856  161.3526 C.2     1  UNL1        0.2434
     37 O         138.6180  143.2232  160.5031 O.2     1  UNL1       -0.2735
     38 C         140.1970  141.1240  160.9981 C.3     1  UNL1        0.1519
     39 S         140.3473  140.1539  162.1323 S.3     1  UNL1       -0.0469
     40 C         139.3450  140.5160  163.1878 C.2     1  UNL1        0.2825
     41 O         139.1472  139.8084  164.4956 O.2     1  UNL1       -0.2623
@<TRIPOS>BOND
     1     7     8    2
     2     8     9   am
     3     9     1    1
     4     1     2    1
     5     2     3    1
     6     3     4    1
     7     4    23    1
     8    23    24    1
     9    24    25   ar
    10    25    26   ar
    11    26    27   ar
    12    27    31    1
    13    31    32    1
    14    32    33    1
    15    33    34    1
    16    34    35    1
    17    35    36   am
    18    36    37    2
    19    36    38    1
    20    38    39    1
    21    39    40    1
    22    40    41    2
    23    27    28   ar
    24    28    29    1
    25    28    30   ar
    26     4     5    1
    27     5     6    1
    28     8    11    1
    29    11    12   ar
    30    12    13   ar
    31    13    14    2
    32    13    15   ar
    33    15    16   ar
    34    16    17   ar
    35    17    18   ar
    36    18    19    1
    37    18    20   ar
    38    20    21   ar
    39    21    22   ar
    40     6     1    1
    41    22    11   ar
    42    30    24   ar
    43    21    15   ar
    44    40    35   am
    45     9    10    1
@<TRIPOS>MOLECULE
*****
 41 45 0 0 0
SMALL
GASTEIGER

@<TRIPOS>ATOM
      1 C         143.7421  139.9362  159.0348 C.3     1  UNL1        0.0747
      2 C         143.6975  141.3540  158.5470 C.3     1  UNL1        0.0369
      3 C         143.7928  142.4870  159.5253 C.3     1  UNL1        0.0741
      4 N         143.9328  142.2023  160.9914 N.3     1  UNL1       -0.2689
      5 C         143.9775  140.7845  161.4792 C.3     1  UNL1        0.0741
      6 C         143.8821  139.6515  160.5008 C.3     1  UNL1        0.0369
      7 O         141.2198  138.3226  158.8495 O.2     1  UNL1       -0.2668
      8 C         142.3856  137.9964  157.9639 C.2     1  UNL1        0.2806
      9 N         143.6467  138.8032  158.0565 N.am    1  UNL1       -0.2999
     10 H         144.4119  138.5890  157.4752 H       1  UNL1        0.1498
     11 C         142.2903  136.8633  156.9855 C.ar    1  UNL1        0.2014
     12 C         141.3095  136.9311  155.8526 C.ar    1  UNL1        0.0843
     13 C         141.2141  135.7981  154.8743 C.ar    1  UNL1        0.2018
     14 O         140.2333  135.8659  153.7414 O.2     1  UNL1       -0.2864
     15 C         142.0996  134.5972  155.0288 C.ar    1  UNL1        0.0737
     16 C         142.0042  133.4642  154.0505 C.ar    1  UNL1        0.0085
     17 C         142.8897  132.2634  154.2050 C.ar    1  UNL1        0.0299
     18 C         143.8705  132.1956  155.3379 C.ar    1  UNL1        0.1432
     19 F         144.7560  130.9947  155.4924 F       1  UNL1       -0.2041
     20 C         143.9659  133.3286  156.3162 C.ar    1  UNL1        0.0672
     21 C         143.0804  134.5294  156.1617 C.ar    1  UNL1        0.1508
     22 O         143.1757  135.6625  157.1400 O.2     1  UNL1       -0.4486
     23 C         144.0282  143.3353  161.9697 C.3     1  UNL1        0.0992
     24 C         142.8094  143.7818  162.7215 C.ar    1  UNL1       -0.0037
     25 C         142.5003  143.1935  164.0662 C.ar    1  UNL1        0.0003
     26 C         141.2815  143.6399  164.8180 C.ar    1  UNL1        0.0390
     27 C         140.3717  144.6746  164.2250 C.ar    1  UNL1        0.1658
     28 C         140.6807  145.2628  162.8803 C.ar    1  UNL1        0.1735
     29 F         139.7709  146.2975  162.2872 F       1  UNL1       -0.2010
     30 C         141.8996  144.8164  162.1285 C.ar    1  UNL1        0.0299
     31 O         139.1529  145.1210  164.9768 O.3     1  UNL1       -0.4731
     32 C         137.8946  144.3067  164.9167 C.3     1  UNL1        0.2073
     33 C         137.6393  143.4060  163.7447 C.3     1  UNL1        0.0693
     34 C         137.6729  141.9168  163.9220 C.3     1  UNL1        0.1056
     35 N         137.9852  141.0294  162.7536 N.am    1  UNL1       -0.2205
     36 C         138.3324  139.5716  162.8217 C.2     1  UNL1        0.2434
     37 O         138.4284  138.7455  164.0699 O.2     1  UNL1       -0.2735
     38 C         138.5669  139.0852  161.4222 C.3     1  UNL1        0.1519
     39 S         138.3645  140.2422  160.4893 S.3     1  UNL1       -0.0469
     40 C         138.0050  141.4438  161.3122 C.2     1  UNL1        0.2825
     41 O         137.7161  142.8184  160.7859 O.2     1  UNL1       -0.2623
@<TRIPOS>BOND
     1     7     8    2
     2     8     9   am
     3     9     1    1
     4     1     2    1
     5     2     3    1
     6     3     4    1
     7     4    23    1
     8    23    24    1
     9    24    25   ar
    10    25    26   ar
    11    26    27   ar
    12    27    31    1
    13    31    32    1
    14    32    33    1
    15    33    34    1
    16    34    35    1
    17    35    36   am
    18    36    37    2
    19    36    38    1
    20    38    39    1
    21    39    40    1
    22    40    41    2
    23    27    28   ar
    24    28    29    1
    25    28    30   ar
    26     4     5    1
    27     5     6    1
    28     8    11    1
    29    11    12   ar
    30    12    13   ar
    31    13    14    2
    32    13    15   ar
    33    15    16   ar
    34    16    17   ar
    35    17    18   ar
    36    18    19    1
    37    18    20   ar
    38    20    21   ar
    39    21    22   ar
    40     6     1    1
    41    22    11   ar
    42    30    24   ar
    43    21    15   ar
    44    40    35   am
    45     9    10    1
@<TRIPOS>MOLECULE
*****
 41 45 0 0 0
SMALL
GASTEIGER

@<TRIPOS>ATOM
      1 C         138.3511  140.2928  159.4243 C.3     1  UNL1        0.0747
      2 C         137.7065  139.5931  160.5840 C.3     1  UNL1        0.0369
      3 C         137.4660  140.3327  161.8666 C.3     1  UNL1        0.0741
      4 N         137.8701  141.7720  161.9895 N.3     1  UNL1       -0.2689
      5 C         138.5146  142.4717  160.8298 C.3     1  UNL1        0.0741
      6 C         138.7551  141.7320  159.5471 C.3     1  UNL1        0.0369
      7 O         140.7080  138.4540  159.1723 O.2     1  UNL1       -0.2668
      8 C         139.7700  138.6338  158.0157 C.2     1  UNL1        0.2806
      9 N         138.5915  139.5532  158.1417 N.am    1  UNL1       -0.2999
     10 H         137.9759  139.6712  157.3825 H       1  UNL1        0.1498
     11 C         140.0105  137.8941  156.7330 C.ar    1  UNL1        0.2014
     12 C         139.3345  138.3419  155.4710 C.ar    1  UNL1        0.0843
     13 C         139.5749  137.6024  154.1883 C.ar    1  UNL1        0.2018
     14 O         138.8990  138.0502  152.9264 O.2     1  UNL1       -0.2864
     15 C         140.4913  136.4150  154.1676 C.ar    1  UNL1        0.0737
     16 C         140.7317  135.6754  152.8850 C.ar    1  UNL1        0.0085
     17 C         141.6481  134.4881  152.8643 C.ar    1  UNL1        0.0299
     18 C         142.3240  134.0403  154.1263 C.ar    1  UNL1        0.1432
     19 F         143.2404  132.8529  154.1056 F       1  UNL1       -0.2041
     20 C         142.0836  134.7798  155.4089 C.ar    1  UNL1        0.0672
     21 C         141.1673  135.9672  155.4296 C.ar    1  UNL1        0.1508
     22 O         140.9268  136.7068  156.7123 O.2     1  UNL1       -0.4486
     23 C         137.6296  142.5116  163.2721 C.3     1  UNL1        0.0992
     24 C         138.4968  142.2437  164.4663 C.ar    1  UNL1       -0.0037
     25 C         139.3796  143.3274  165.0105 C.ar    1  UNL1        0.0003
     26 C         140.2468  143.0595  166.2047 C.ar    1  UNL1        0.0390
     27 C         140.2312  141.7078  166.8548 C.ar    1  UNL1        0.1658
     28 C         139.3484  140.6241  166.3107 C.ar    1  UNL1        0.1735
     29 F         139.3328  139.2723  166.9608 F       1  UNL1       -0.2010
     30 C         138.4812  140.8920  165.1164 C.ar    1  UNL1        0.0299
     31 O         141.0984  141.4399  168.0490 O.3     1  UNL1       -0.4731
     32 C         142.2145  140.4420  167.9567 C.3     1  UNL1        0.2073
     33 C         142.8136  140.1081  166.6227 C.3     1  UNL1        0.0693
     34 C         142.7792  138.6962  166.1173 C.3     1  UNL1        0.1056
     35 N         142.5461  138.4266  164.6603 N.am    1  UNL1       -0.2205
     36 C         141.3409  137.7570  164.0693 C.2     1  UNL1        0.2434
     37 O         140.1574  137.2394  164.8316 O.2     1  UNL1       -0.2735
     38 C         141.5272  137.6959  162.5821 C.3     1  UNL1        0.1519
     39 S         142.8475  138.3277  162.2540 S.3     1  UNL1       -0.0469
     40 C         143.4772  138.7793  163.5383 C.2     1  UNL1        0.2825
     41 O         144.8049  139.4636  163.6765 O.2     1  UNL1       -0.2623
@<TRIPOS>BOND
     1     7     8    2
     2     8     9   am
     3     9     1    1
     4     1     2    1
     5     2     3    1
     6     3     4    1
     7     4    23    1
     8    23    24    1
     9    24    25   ar
    10    25    26   ar
    11    26    27   ar
    12    27    31    1
    13    31    32    1
    14    32    33    1
    15    33    34    1
    16    34    35    1
    17    35    36   am
    18    36    37    2
    19    36    38    1
    20    38    39    1
    21    39    40    1
    22    40    41    2
    23    27    28   ar
    24    28    29    1
    25    28    30   ar
    26     4     5    1
    27     5     6    1
    28     8    11    1
    29    11    12   ar
    30    12    13   ar
    31    13    14    2
    32    13    15   ar
    33    15    16   ar
    34    16    17   ar
    35    17    18   ar
    36    18    19    1
    37    18    20   ar
    38    20    21   ar
    39    21    22   ar
    40     6     1    1
    41    22    11   ar
    42    30    24   ar
    43    21    15   ar
    44    40    35   am
    45     9    10    1
@<TRIPOS>MOLECULE
*****
 41 45 0 0 0
SMALL
GASTEIGER

@<TRIPOS>ATOM
      1 C         139.4251  141.7592  158.0363 C.3     1  UNL1        0.0747
      2 C         140.6332  141.2067  158.7329 C.3     1  UNL1        0.0369
      3 C         140.4849  140.0789  159.7106 C.3     1  UNL1        0.0741
      4 N         139.1284  139.5035  159.9918 N.3     1  UNL1       -0.2689
      5 C         137.9203  140.0559  159.2952 C.3     1  UNL1        0.0741
      6 C         138.0687  141.1838  158.3174 C.3     1  UNL1        0.0369
      7 O         139.6219  144.5849  159.0245 O.2     1  UNL1       -0.2668
      8 C         139.6718  144.2999  157.5527 C.2     1  UNL1        0.2806
      9 N         139.5734  142.8870  157.0586 N.am    1  UNL1       -0.2999
     10 H         139.6062  142.6999  156.0926 H       1  UNL1        0.1498
     11 C         139.8202  145.4277  156.5749 C.ar    1  UNL1        0.2014
     12 C         140.6312  145.2371  155.3275 C.ar    1  UNL1        0.0843
     13 C         140.7795  146.3649  154.3497 C.ar    1  UNL1        0.2018
     14 O         141.5906  146.1743  153.1024 O.2     1  UNL1       -0.2864
     15 C         140.1168  147.6834  154.6193 C.ar    1  UNL1        0.0737
     16 C         140.2652  148.8111  153.6415 C.ar    1  UNL1        0.0085
     17 C         139.6025  150.1295  153.9111 C.ar    1  UNL1        0.0299
     18 C         138.7915  150.3201  155.1585 C.ar    1  UNL1        0.1432
     19 F         138.1288  151.6385  155.4280 F       1  UNL1       -0.2041
     20 C         138.6431  149.1923  156.1362 C.ar    1  UNL1        0.0672
     21 C         139.3058  147.8740  155.8667 C.ar    1  UNL1        0.1508
     22 O         139.1575  146.7461  156.8445 O.2     1  UNL1       -0.4486
     23 C         138.9801  138.3756  160.9695 C.3     1  UNL1        0.0992
     24 C         138.9121  138.6621  162.4403 C.ar    1  UNL1       -0.0037
     25 C         139.3469  137.6205  163.4282 C.ar    1  UNL1        0.0003
     26 C         139.2789  137.9070  164.8990 C.ar    1  UNL1        0.0390
     27 C         138.7762  139.2351  165.3819 C.ar    1  UNL1        0.1658
     28 C         138.3414  140.2768  164.3941 C.ar    1  UNL1        0.1735
     29 F         137.8387  141.6050  164.8770 F       1  UNL1       -0.2010
     30 C         138.4094  139.9903  162.9232 C.ar    1  UNL1        0.0299
     31 O         138.7082  139.5216  166.8528 O.3     1  UNL1       -0.4731
     32 C         139.6729  140.4876  167.4741 C.3     1  UNL1        0.2073
     33 C         141.0996  140.0826  167.6990 C.3     1  UNL1        0.0693
     34 C         142.1982  140.7413  166.9183 C.3     1  UNL1        0.1056
     35 N         142.1085  140.8271  165.4234 N.am    1  UNL1       -0.2205
     36 C         142.4455  139.7317  164.4556 C.2     1  UNL1        0.2434
     37 O         142.9314  138.3584  164.8127 O.2     1  UNL1       -0.2735
     38 C         142.2113  140.2511  163.0680 C.3     1  UNL1        0.1519
     39 S         141.7296  141.6673  163.1782 S.3     1  UNL1       -0.0469
     40 C         141.6660  142.0233  164.6339 C.2     1  UNL1        0.2825
     41 O         141.2356  143.3438  165.2007 O.2     1  UNL1       -0.2623
@<TRIPOS>BOND
     1     7     8    2
     2     8     9   am
     3     9     1    1
     4     1     2    1
     5     2     3    1
     6     3     4    1
     7     4    23    1
     8    23    24    1
     9    24    25   ar
    10    25    26   ar
    11    26    27   ar
    12    27    31    1
    13    31    32    1
    14    32    33    1
    15    33    34    1
    16    34    35    1
    17    35    36   am
    18    36    37    2
    19    36    38    1
    20    38    39    1
    21    39    40    1
    22    40    41    2
    23    27    28   ar
    24    28    29    1
    25    28    30   ar
    26     4     5    1
    27     5     6    1
    28     8    11    1
    29    11    12   ar
    30    12    13   ar
    31    13    14    2
    32    13    15   ar
    33    15    16   ar
    34    16    17   ar
    35    17    18   ar
    36    18    19    1
    37    18    20   ar
    38    20    21   ar
    39    21    22   ar
    40     6     1    1
    41    22    11   ar
    42    30    24   ar
    43    21    15   ar
    44    40    35   am
    45     9    10    1
@<TRIPOS>MOLECULE
*****
 41 45 0 0 0
SMALL
GASTEIGER

@<TRIPOS>ATOM
      1 C         142.7373  138.4436  157.5929 C.3     1  UNL1        0.0747
      2 C         142.9991  138.5900  159.0626 C.3     1  UNL1        0.0369
      3 C         143.1747  139.9542  159.6609 C.3     1  UNL1        0.0741
      4 N         143.0886  141.1722  158.7895 N.3     1  UNL1       -0.2689
      5 C         142.8267  141.0258  157.3198 C.3     1  UNL1        0.0741
      6 C         142.6511  139.6614  156.7215 C.3     1  UNL1        0.0369
      7 O         144.8090  137.3493  155.7193 O.2     1  UNL1       -0.2668
      8 C         143.5975  136.5322  156.0578 C.2     1  UNL1        0.2806
      9 N         142.5617  137.0794  156.9946 N.am    1  UNL1       -0.2999
     10 H         141.7665  136.5431  157.2168 H       1  UNL1        0.1498
     11 C         143.4219  135.1679  155.4595 C.ar    1  UNL1        0.2014
     12 C         142.5198  134.9784  154.2761 C.ar    1  UNL1        0.0843
     13 C         142.3441  133.6142  153.6778 C.ar    1  UNL1        0.2018
     14 O         141.4420  133.4247  152.4945 O.2     1  UNL1       -0.2864
     15 C         143.0705  132.4394  154.2629 C.ar    1  UNL1        0.0737
     16 C         142.8948  131.0752  153.6646 C.ar    1  UNL1        0.0085
     17 C         143.6211  129.9005  154.2497 C.ar    1  UNL1        0.0299
     18 C         144.5232  130.0899  155.4331 C.ar    1  UNL1        0.1432
     19 F         145.2496  128.9151  156.0182 F       1  UNL1       -0.2041
     20 C         144.6989  131.4542  156.0314 C.ar    1  UNL1        0.0672
     21 C         143.9725  132.6289  155.4463 C.ar    1  UNL1        0.1508
     22 O         144.1482  133.9932  156.0446 O.2     1  UNL1       -0.4486
     23 C         143.2642  142.5364  159.3877 C.3     1  UNL1        0.0992
     24 C         142.1236  143.1917  160.1086 C.ar    1  UNL1       -0.0037
     25 C         140.7413  143.1407  159.5285 C.ar    1  UNL1        0.0003
     26 C         139.6007  143.7960  160.2493 C.ar    1  UNL1        0.0390
     27 C         139.8425  144.5024  161.5503 C.ar    1  UNL1        0.1658
     28 C         141.2248  144.5535  162.1304 C.ar    1  UNL1        0.1735
     29 F         141.4666  145.2600  163.4314 F       1  UNL1       -0.2010
     30 C         142.3653  143.8982  161.4095 C.ar    1  UNL1        0.0299
     31 O         138.7019  145.1578  162.2711 O.3     1  UNL1       -0.4731
     32 C         137.8048  144.3419  163.1540 C.3     1  UNL1        0.2073
     33 C         138.1846  142.9366  163.5156 C.3     1  UNL1        0.0693
     34 C         137.3017  141.7934  163.1112 C.3     1  UNL1        0.1056
     35 N         137.8413  140.3937  163.1082 N.am    1  UNL1       -0.2205
     36 C         138.4224  139.6703  164.2868 C.2     1  UNL1        0.2434
     37 O         138.5660  140.2195  165.6752 O.2     1  UNL1       -0.2735
     38 C         138.8347  138.3013  163.8331 C.3     1  UNL1        0.1519
     39 S         138.5084  138.1786  162.3742 S.3     1  UNL1       -0.0469
     40 C         137.8944  139.4718  161.9262 C.2     1  UNL1        0.2825
     41 O         137.4173  139.7876  160.5396 O.2     1  UNL1       -0.2623
@<TRIPOS>BOND
     1     7     8    2
     2     8     9   am
     3     9     1    1
     4     1     2    1
     5     2     3    1
     6     3     4    1
     7     4    23    1
     8    23    24    1
     9    24    25   ar
    10    25    26   ar
    11    26    27   ar
    12    27    31    1
    13    31    32    1
    14    32    33    1
    15    33    34    1
    16    34    35    1
    17    35    36   am
    18    36    37    2
    19    36    38    1
    20    38    39    1
    21    39    40    1
    22    40    41    2
    23    27    28   ar
    24    28    29    1
    25    28    30   ar
    26     4     5    1
    27     5     6    1
    28     8    11    1
    29    11    12   ar
    30    12    13   ar
    31    13    14    2
    32    13    15   ar
    33    15    16   ar
    34    16    17   ar
    35    17    18   ar
    36    18    19    1
    37    18    20   ar
    38    20    21   ar
    39    21    22   ar
    40     6     1    1
    41    22    11   ar
    42    30    24   ar
    43    21    15   ar
    44    40    35   am
    45     9    10    1
@<TRIPOS>MOLECULE
*****
 41 45 0 0 0
SMALL
GASTEIGER

@<TRIPOS>ATOM
      1 C         143.1489  139.0238  159.5563 C.3     1  UNL1        0.0747
      2 C         144.0329  138.5607  160.6762 C.3     1  UNL1        0.0369
      3 C         143.4277  137.9574  161.9090 C.3     1  UNL1        0.0741
      4 N         141.9385  137.8172  162.0219 N.3     1  UNL1       -0.2689
      5 C         141.0545  138.2803  160.9021 C.3     1  UNL1        0.0741
      6 C         141.6598  138.8836  159.6692 C.3     1  UNL1        0.0369
      7 O         143.9795  141.9065  159.5497 O.2     1  UNL1       -0.2668
      8 C         144.1693  141.0684  158.3202 C.2     1  UNL1        0.2806
      9 N         143.7540  139.6271  158.3236 N.am    1  UNL1       -0.2999
     10 H         143.8786  139.0771  157.5166 H       1  UNL1        0.1498
     11 C         144.7745  141.6717  157.0874 C.ar    1  UNL1        0.2014
     12 C         143.9052  142.3961  156.1026 C.ar    1  UNL1        0.0843
     13 C         144.5103  142.9993  154.8698 C.ar    1  UNL1        0.2018
     14 O         143.6411  143.7237  153.8850 O.2     1  UNL1       -0.2864
     15 C         145.9848  142.8783  154.6217 C.ar    1  UNL1        0.0737
     16 C         146.5899  143.4816  153.3889 C.ar    1  UNL1        0.0085
     17 C         148.0642  143.3605  153.1408 C.ar    1  UNL1        0.0299
     18 C         148.9335  142.6362  154.1256 C.ar    1  UNL1        0.1432
     19 F         150.4079  142.5152  153.8775 F       1  UNL1       -0.2041
     20 C         148.3284  142.0329  155.3584 C.ar    1  UNL1        0.0672
     21 C         146.8540  142.1540  155.6064 C.ar    1  UNL1        0.1508
     22 O         146.2489  141.5507  156.8393 O.2     1  UNL1       -0.4486
     23 C         141.3334  137.2139  163.2547 C.3     1  UNL1        0.0992
     24 C         141.1021  138.0631  164.4694 C.ar    1  UNL1       -0.0037
     25 C         142.2672  138.5329  165.2889 C.ar    1  UNL1        0.0003
     26 C         142.0359  139.3821  166.5036 C.ar    1  UNL1        0.0390
     27 C         140.6395  139.7615  166.8986 C.ar    1  UNL1        0.1658
     28 C         139.4744  139.2917  166.0790 C.ar    1  UNL1        0.1735
     29 F         138.0780  139.6711  166.4741 F       1  UNL1       -0.2010
     30 C         139.7057  138.4425  164.8644 C.ar    1  UNL1        0.0299
     31 O         140.4083  140.6107  168.1133 O.3     1  UNL1       -0.4731
     32 C         140.7312  142.0751  168.0772 C.3     1  UNL1        0.2073
     33 C         140.1217  142.9518  167.0237 C.3     1  UNL1        0.0693
     34 C         140.7735  143.0710  165.6779 C.3     1  UNL1        0.1056
     35 N         140.0675  143.7846  164.5633 N.am    1  UNL1       -0.2205
     36 C         140.6281  144.9060  163.7396 C.2     1  UNL1        0.2434
     37 O         141.9930  145.5105  163.8859 O.2     1  UNL1       -0.2735
     38 C         139.5840  145.3165  162.7438 C.3     1  UNL1        0.1519
     39 S         138.3782  144.4489  162.9521 S.3     1  UNL1       -0.0469
     40 C         138.6771  143.5022  164.0766 C.2     1  UNL1        0.2825
     41 O         137.7484  142.4566  164.6191 O.2     1  UNL1       -0.2623
@<TRIPOS>BOND
     1     7     8    2
     2     8     9   am
     3     9     1    1
     4     1     2    1
     5     2     3    1
     6     3     4    1
     7     4    23    1
     8    23    24    1
     9    24    25   ar
    10    25    26   ar
    11    26    27   ar
    12    27    31    1
    13    31    32    1
    14    32    33    1
    15    33    34    1
    16    34    35    1
    17    35    36   am
    18    36    37    2
    19    36    38    1
    20    38    39    1
    21    39    40    1
    22    40    41    2
    23    27    28   ar
    24    28    29    1
    25    28    30   ar
    26     4     5    1
    27     5     6    1
    28     8    11    1
    29    11    12   ar
    30    12    13   ar
    31    13    14    2
    32    13    15   ar
    33    15    16   ar
    34    16    17   ar
    35    17    18   ar
    36    18    19    1
    37    18    20   ar
    38    20    21   ar
    39    21    22   ar
    40     6     1    1
    41    22    11   ar
    42    30    24   ar
    43    21    15   ar
    44    40    35   am
    45     9    10    1
@<TRIPOS>MOLECULE
*****
 41 45 0 0 0
SMALL
GASTEIGER

@<TRIPOS>ATOM
      1 C         142.8107  138.7621  159.6060 C.3     1  UNL1        0.0747
      2 C         141.8805  139.9295  159.4584 C.3     1  UNL1        0.0369
      3 C         142.0641  141.1476  160.3143 C.3     1  UNL1        0.0741
      4 N         143.1780  141.1983  161.3177 N.3     1  UNL1       -0.2689
      5 C         144.1081  140.0308  161.4653 C.3     1  UNL1        0.0741
      6 C         143.9245  138.8127  160.6094 C.3     1  UNL1        0.0369
      7 O         143.7406  138.7787  156.7538 O.2     1  UNL1       -0.2668
      8 C         143.0920  137.5523  157.3241 C.2     1  UNL1        0.2806
      9 N         142.6271  137.5440  158.7502 N.am    1  UNL1       -0.2999
     10 H         142.2014  136.7390  159.1245 H       1  UNL1        0.1498
     11 C         142.9083  136.3341  156.4683 C.ar    1  UNL1        0.2014
     12 C         141.8976  136.3416  155.3599 C.ar    1  UNL1        0.0843
     13 C         141.7140  135.1235  154.5041 C.ar    1  UNL1        0.2018
     14 O         140.7032  135.1310  153.3958 O.2     1  UNL1       -0.2864
     15 C         142.5410  133.8978  154.7566 C.ar    1  UNL1        0.0737
     16 C         142.3573  132.6797  153.9008 C.ar    1  UNL1        0.0085
     17 C         143.1844  131.4541  154.1534 C.ar    1  UNL1        0.0299
     18 C         144.1951  131.4466  155.2617 C.ar    1  UNL1        0.1432
     19 F         145.0222  130.2208  155.5142 F       1  UNL1       -0.2041
     20 C         144.3788  132.6647  156.1175 C.ar    1  UNL1        0.0672
     21 C         143.5517  133.8903  155.8650 C.ar    1  UNL1        0.1508
     22 O         143.7354  135.1085  156.7208 O.2     1  UNL1       -0.4486
     23 C         143.3616  142.4164  162.1735 C.3     1  UNL1        0.0992
     24 C         142.8586  142.4229  163.5867 C.ar    1  UNL1       -0.0037
     25 C         143.6909  141.8247  164.6818 C.ar    1  UNL1        0.0003
     26 C         143.1879  141.8312  166.0949 C.ar    1  UNL1        0.0390
     27 C         141.8526  142.4360  166.4130 C.ar    1  UNL1        0.1658
     28 C         141.0203  143.0343  165.3178 C.ar    1  UNL1        0.1735
     29 F         139.6850  143.6391  165.6358 F       1  UNL1       -0.2010
     30 C         141.5233  143.0278  163.9047 C.ar    1  UNL1        0.0299
     31 O         141.3496  142.4426  167.8261 O.3     1  UNL1       -0.4731
     32 C         140.2536  141.5043  168.2364 C.3     1  UNL1        0.2073
     33 C         140.2891  140.0710  167.7956 C.3     1  UNL1        0.0693
     34 C         139.3411  139.5879  166.7381 C.3     1  UNL1        0.1056
     35 N         139.7809  139.5328  165.3051 N.am    1  UNL1       -0.2205
     36 C         141.0534  138.9229  164.7962 C.2     1  UNL1        0.2434
     37 O         142.1094  138.2611  165.6308 O.2     1  UNL1       -0.2735
     38 C         141.0843  139.0912  163.3059 C.3     1  UNL1        0.1519
     39 S         139.8311  139.8050  162.8939 S.3     1  UNL1       -0.0469
     40 C         139.0256  140.0780  164.1294 C.2     1  UNL1        0.2825
     41 O         137.6977  140.7739  164.1803 O.2     1  UNL1       -0.2623
@<TRIPOS>BOND
     1     7     8    2
     2     8     9   am
     3     9     1    1
     4     1     2    1
     5     2     3    1
     6     3     4    1
     7     4    23    1
     8    23    24    1
     9    24    25   ar
    10    25    26   ar
    11    26    27   ar
    12    27    31    1
    13    31    32    1
    14    32    33    1
    15    33    34    1
    16    34    35    1
    17    35    36   am
    18    36    37    2
    19    36    38    1
    20    38    39    1
    21    39    40    1
    22    40    41    2
    23    27    28   ar
    24    28    29    1
    25    28    30   ar
    26     4     5    1
    27     5     6    1
    28     8    11    1
    29    11    12   ar
    30    12    13   ar
    31    13    14    2
    32    13    15   ar
    33    15    16   ar
    34    16    17   ar
    35    17    18   ar
    36    18    19    1
    37    18    20   ar
    38    20    21   ar
    39    21    22   ar
    40     6     1    1
    41    22    11   ar
    42    30    24   ar
    43    21    15   ar
    44    40    35   am
    45     9    10    1
@<TRIPOS>MOLECULE
*****
 41 45 0 0 0
SMALL
GASTEIGER

@<TRIPOS>ATOM
      1 C         139.5512  141.7999  157.7634 C.3     1  UNL1        0.0747
      2 C         138.2050  141.3822  158.2765 C.3     1  UNL1        0.0369
      3 C         138.0922  140.2438  159.2466 C.3     1  UNL1        0.0741
      4 N         139.3258  139.5230  159.7038 N.3     1  UNL1       -0.2689
      5 C         140.6720  139.9406  159.1907 C.3     1  UNL1        0.0741
      6 C         140.7847  141.0791  158.2205 C.3     1  UNL1        0.0369
      7 O         139.6622  144.6236  158.7706 O.2     1  UNL1       -0.2668
      8 C         139.7194  144.3502  157.2969 C.2     1  UNL1        0.2806
      9 N         139.6639  142.9383  156.7933 N.am    1  UNL1       -0.2999
     10 H         139.7015  142.7589  155.8260 H       1  UNL1        0.1498
     11 C         139.8322  145.4886  156.3266 C.ar    1  UNL1        0.2014
     12 C         140.5834  145.3068  155.0411 C.ar    1  UNL1        0.0843
     13 C         140.6962  146.4452  154.0709 C.ar    1  UNL1        0.2018
     14 O         141.4474  146.2633  152.7853 O.2     1  UNL1       -0.2864
     15 C         140.0577  147.7654  154.3862 C.ar    1  UNL1        0.0737
     16 C         140.1705  148.9038  153.4160 C.ar    1  UNL1        0.0085
     17 C         139.5321  150.2240  153.7313 C.ar    1  UNL1        0.0299
     18 C         138.7809  150.4058  155.0169 C.ar    1  UNL1        0.1432
     19 F         138.1424  151.7261  155.3322 F       1  UNL1       -0.2041
     20 C         138.6681  149.2674  155.9871 C.ar    1  UNL1        0.0672
     21 C         139.3065  147.9473  155.6717 C.ar    1  UNL1        0.1508
     22 O         139.1938  146.8088  156.6420 O.2     1  UNL1       -0.4486
     23 C         139.2130  138.3845  160.6739 C.3     1  UNL1        0.0992
     24 C         139.4609  138.6168  162.1349 C.ar    1  UNL1       -0.0037
     25 C         140.7189  138.1062  162.7727 C.ar    1  UNL1        0.0003
     26 C         140.9668  138.3385  164.2337 C.ar    1  UNL1        0.0390
     27 C         139.9568  139.0814  165.0570 C.ar    1  UNL1        0.1658
     28 C         138.6988  139.5921  164.4192 C.ar    1  UNL1        0.1735
     29 F         137.6887  140.3351  165.2425 F       1  UNL1       -0.2010
     30 C         138.4509  139.3598  162.9582 C.ar    1  UNL1        0.0299
     31 O         140.2047  139.3137  166.5180 O.3     1  UNL1       -0.4731
     32 C         140.9108  140.5573  166.9705 C.3     1  UNL1        0.2073
     33 C         140.2678  141.8983  166.7746 C.3     1  UNL1        0.0693
     34 C         140.8378  142.8652  165.7795 C.3     1  UNL1        0.1056
     35 N         140.0221  143.2901  164.5946 N.am    1  UNL1       -0.2205
     36 C         140.1451  142.7506  163.2003 C.2     1  UNL1        0.2434
     37 O         141.1053  141.6915  162.7463 O.2     1  UNL1       -0.2735
     38 C         139.1391  143.4561  162.3399 C.3     1  UNL1        0.1519
     39 S         138.3945  144.4317  163.2024 S.3     1  UNL1       -0.0469
     40 C         138.9402  144.3291  164.5958 C.2     1  UNL1        0.2825
     41 O         138.4840  145.1256  165.7822 O.2     1  UNL1       -0.2623
@<TRIPOS>BOND
     1     7     8    2
     2     8     9   am
     3     9     1    1
     4     1     2    1
     5     2     3    1
     6     3     4    1
     7     4    23    1
     8    23    24    1
     9    24    25   ar
    10    25    26   ar
    11    26    27   ar
    12    27    31    1
    13    31    32    1
    14    32    33    1
    15    33    34    1
    16    34    35    1
    17    35    36   am
    18    36    37    2
    19    36    38    1
    20    38    39    1
    21    39    40    1
    22    40    41    2
    23    27    28   ar
    24    28    29    1
    25    28    30   ar
    26     4     5    1
    27     5     6    1
    28     8    11    1
    29    11    12   ar
    30    12    13   ar
    31    13    14    2
    32    13    15   ar
    33    15    16   ar
    34    16    17   ar
    35    17    18   ar
    36    18    19    1
    37    18    20   ar
    38    20    21   ar
    39    21    22   ar
    40     6     1    1
    41    22    11   ar
    42    30    24   ar
    43    21    15   ar
    44    40    35   am
    45     9    10    1
