@<TRIPOS>MOLECULE
*****
 32 34 0 0 0
SMALL
GASTEIGER

@<TRIPOS>ATOM
      1 C         141.3050  143.5870  163.6060 C.3     1  UNL1        0.2103
      2 C         142.1326  142.6624  162.7632 C.3     1  UNL1        0.1418
      3 N         142.1787  143.2202  161.3715 N.3     1  UNL1       -0.1492
      4 C         141.3797  144.4896  161.3542 C.3     1  UNL1        0.1277
      5 C         140.8397  144.7163  162.7351 C.3     1  UNL1        0.1566
      6 O         140.1734  145.2003  163.9888 O.3     1  UNL1       -0.3804
      7 H         139.7018  146.0279  163.8055 H       1  UNL1        0.2105
      8 C         140.2351  145.9467  162.1264 C.3     1  UNL1        0.0975
      9 N         139.6871  145.9013  160.7309 N.3     1  UNL1       -0.3191
     10 H         140.4487  145.7412  160.0715 H       1  UNL1        0.1189
     11 H         139.2316  146.7881  160.5154 H       1  UNL1        0.1189
     12 S         142.8977  142.6148  160.2024 S.O2    1  UNL1        0.0643
     13 O         142.0637  143.4362  159.2643 O.2     1  UNL1       -0.1527
     14 O         143.7316  141.7936  161.1405 O.2     1  UNL1       -0.1527
     15 C         143.6166  142.0095  159.0334 C.ar    1  UNL1        0.1327
     16 C         144.8350  142.6810  158.4727 C.ar    1  UNL1        0.0216
     17 C         145.5539  142.0757  157.3036 C.ar    1  UNL1        0.0128
     18 C         145.0544  140.7989  156.6953 C.ar    1  UNL1        0.0586
     19 CL        145.7734  140.1936  155.5262 Cl      1  UNL1       -0.0822
     20 C         143.8360  140.1274  157.2560 C.ar    1  UNL1        0.0241
     21 C         143.1170  140.7327  158.4250 C.ar    1  UNL1        0.0771
     22 CL        141.8986  140.0611  158.9858 Cl      1  UNL1       -0.0808
     23 O         140.9969  143.4130  165.0636 O.3     1  UNL1       -0.4751
     24 C         138.6175  139.8545  166.4512 C.ar    1  UNL1        0.0960
     25 C         138.3037  140.4990  165.1336 C.ar    1  UNL1        0.0157
     26 C         139.0968  141.6852  164.6711 C.ar    1  UNL1        0.0377
     27 C         140.2038  142.2268  165.5262 C.ar    1  UNL1        0.1408
     28 C         140.5176  141.5824  166.8437 C.ar    1  UNL1        0.0672
     29 C         139.7245  140.3962  167.3063 C.ar    1  UNL1        0.1527
     30 F         140.0384  139.7517  168.6239 F       1  UNL1       -0.2034
     31 N         137.0313  137.4821  167.3763 N.1     1  UNL1       -0.1908
     32 C         137.8244  138.6683  166.9138 C.1     1  UNL1        0.1027
@<TRIPOS>BOND
     1    31    32    3
     2    32    24    1
     3    24    25   ar
     4    25    26   ar
     5    26    27   ar
     6    27    23    1
     7     1    23    1
     8     1     2    1
     9     2     3    1
    10     3    12    1
    11    12    13    2
    12    12    14    2
    13    12    15    1
    14    15    16   ar
    15    16    17   ar
    16    17    18   ar
    17    18    19    1
    18    18    20   ar
    19    20    21   ar
    20    21    22    1
    21     3     4    1
    22     4     5    1
    23     5     6    1
    24     5     8    1
    25     8     9    1
    26    27    28   ar
    27    28    29   ar
    28    29    30    1
    29    29    24   ar
    30     5     1    1
    31    21    15   ar
    32     6     7    1
    33     9    10    1
    34     9    11    1
@<TRIPOS>MOLECULE
*****
 32 34 0 0 0
SMALL
GASTEIGER

@<TRIPOS>ATOM
      1 C         142.5864  140.2123  164.4576 C.3     1  UNL1        0.2103
      2 C         142.2714  141.5254  163.8045 C.3     1  UNL1        0.1418
      3 N         141.9104  141.2567  162.3735 N.3     1  UNL1       -0.1492
      4 C         142.0023  139.7774  162.1423 C.3     1  UNL1        0.1277
      5 C         142.4200  139.1320  163.4303 C.3     1  UNL1        0.1566
      6 O         142.8205  138.2209  164.5525 O.3     1  UNL1       -0.3804
      7 H         142.8306  137.3038  164.2366 H       1  UNL1        0.2105
      8 C         142.3375  137.8612  162.6377 C.3     1  UNL1        0.0975
      9 N         141.2377  136.8780  162.9093 N.3     1  UNL1       -0.3191
     10 H         141.3533  136.4884  163.8449 H       1  UNL1        0.1189
     11 H         141.2760  136.1263  162.2209 H       1  UNL1        0.1189
     12 S         141.5252  142.2863  161.3531 S.O2    1  UNL1        0.0643
     13 O         140.0762  142.0457  161.6573 O.2     1  UNL1       -0.1527
     14 O         142.9742  142.5269  161.0488 O.2     1  UNL1       -0.1527
     15 C         141.1400  143.3160  160.3326 C.ar    1  UNL1        0.1327
     16 C         140.9661  142.9200  158.8964 C.ar    1  UNL1        0.0216
     17 C         140.5809  143.9497  157.8759 C.ar    1  UNL1        0.0128
     18 C         140.3696  145.3753  158.2916 C.ar    1  UNL1        0.0586
     19 CL        139.9844  146.4049  157.2712 Cl      1  UNL1       -0.0822
     20 C         140.5435  145.7713  159.7280 C.ar    1  UNL1        0.0241
     21 C         140.9287  144.7416  160.7484 C.ar    1  UNL1        0.0771
     22 CL        141.1027  145.1376  162.1847 Cl      1  UNL1       -0.0808
     23 O         142.9957  140.0142  165.8870 O.3     1  UNL1       -0.4751
     24 C         140.6664  141.9935  169.1895 C.ar    1  UNL1        0.0960
     25 C         141.9674  142.5831  168.7319 C.ar    1  UNL1        0.0157
     26 C         142.7439  141.9234  167.6310 C.ar    1  UNL1        0.0377
     27 C         142.2193  140.6740  166.9878 C.ar    1  UNL1        0.1408
     28 C         140.9182  140.0843  167.4455 C.ar    1  UNL1        0.0672
     29 C         140.1418  140.7441  168.5464 C.ar    1  UNL1        0.1527
     30 F         138.8406  140.1543  169.0040 F       1  UNL1       -0.2034
     31 N         139.1135  143.3130  171.3912 N.1     1  UNL1       -0.1908
     32 C         139.8899  142.6532  170.2904 C.1     1  UNL1        0.1027
@<TRIPOS>BOND
     1    31    32    3
     2    32    24    1
     3    24    25   ar
     4    25    26   ar
     5    26    27   ar
     6    27    23    1
     7     1    23    1
     8     1     2    1
     9     2     3    1
    10     3    12    1
    11    12    13    2
    12    12    14    2
    13    12    15    1
    14    15    16   ar
    15    16    17   ar
    16    17    18   ar
    17    18    19    1
    18    18    20   ar
    19    20    21   ar
    20    21    22    1
    21     3     4    1
    22     4     5    1
    23     5     6    1
    24     5     8    1
    25     8     9    1
    26    27    28   ar
    27    28    29   ar
    28    29    30    1
    29    29    24   ar
    30     5     1    1
    31    21    15   ar
    32     6     7    1
    33     9    10    1
    34     9    11    1
@<TRIPOS>MOLECULE
*****
 32 34 0 0 0
SMALL
GASTEIGER

@<TRIPOS>ATOM
      1 C         141.9574  144.2513  162.2385 C.3     1  UNL1        0.2103
      2 C         142.0774  143.3243  163.4117 C.3     1  UNL1        0.1418
      3 N         140.8955  143.5535  164.3065 N.3     1  UNL1       -0.1492
      4 C         140.0451  144.6224  163.6864 C.3     1  UNL1        0.1277
      5 C         140.7013  145.0536  162.4084 C.3     1  UNL1        0.1566
      6 O         141.1130  145.6799  161.1091 O.3     1  UNL1       -0.3804
      7 H         140.4582  146.3469  160.8498 H       1  UNL1        0.2105
      8 C         139.5314  145.9868  162.3065 C.3     1  UNL1        0.0975
      9 N         139.2691  146.7237  161.0266 N.3     1  UNL1       -0.3191
     10 H         140.0283  147.3820  160.8516 H       1  UNL1        0.1189
     11 H         138.3883  147.2326  161.1016 H       1  UNL1        0.1189
     12 S         140.6136  142.8394  165.5951 S.O2    1  UNL1        0.0643
     13 O         142.0331  142.3566  165.6381 O.2     1  UNL1       -0.1527
     14 O         139.1941  143.3223  165.5521 O.2     1  UNL1       -0.1527
     15 C         140.3316  142.1253  166.8837 C.ar    1  UNL1        0.1327
     16 C         140.5720  142.8171  168.1927 C.ar    1  UNL1        0.0216
     17 C         140.2901  142.1030  169.4813 C.ar    1  UNL1        0.0128
     18 C         139.7678  140.6971  169.4609 C.ar    1  UNL1        0.0586
     19 CL        139.4858  139.9830  170.7496 Cl      1  UNL1       -0.0822
     20 C         139.5273  140.0053  168.1519 C.ar    1  UNL1        0.0241
     21 C         139.8092  140.7194  166.8633 C.ar    1  UNL1        0.0771
     22 CL        139.5688  140.0276  165.5542 Cl      1  UNL1       -0.0808
     23 O         142.9237  144.3575  161.0962 O.3     1  UNL1       -0.4751
     24 C         143.4629  140.8929  158.2757 C.ar    1  UNL1        0.0960
     25 C         143.0084  142.2228  157.7517 C.ar    1  UNL1        0.0157
     26 C         142.8286  143.3777  158.6919 C.ar    1  UNL1        0.0377
     27 C         143.1035  143.2026  160.1561 C.ar    1  UNL1        0.1408
     28 C         143.5580  141.8727  160.6800 C.ar    1  UNL1        0.0672
     29 C         143.7377  140.7178  159.7399 C.ar    1  UNL1        0.1527
     30 F         144.1923  139.3878  160.2639 F       1  UNL1       -0.2034
     31 N         143.8223  138.5831  156.3953 N.1     1  UNL1       -0.1908
     32 C         143.6426  139.7380  157.3355 C.1     1  UNL1        0.1027
@<TRIPOS>BOND
     1    31    32    3
     2    32    24    1
     3    24    25   ar
     4    25    26   ar
     5    26    27   ar
     6    27    23    1
     7     1    23    1
     8     1     2    1
     9     2     3    1
    10     3    12    1
    11    12    13    2
    12    12    14    2
    13    12    15    1
    14    15    16   ar
    15    16    17   ar
    16    17    18   ar
    17    18    19    1
    18    18    20   ar
    19    20    21   ar
    20    21    22    1
    21     3     4    1
    22     4     5    1
    23     5     6    1
    24     5     8    1
    25     8     9    1
    26    27    28   ar
    27    28    29   ar
    28    29    30    1
    29    29    24   ar
    30     5     1    1
    31    21    15   ar
    32     6     7    1
    33     9    10    1
    34     9    11    1
@<TRIPOS>MOLECULE
*****
 32 34 0 0 0
SMALL
GASTEIGER

@<TRIPOS>ATOM
      1 C         143.1871  141.9492  161.0942 C.3     1  UNL1        0.2103
      2 C         141.9572  141.2164  161.5419 C.3     1  UNL1        0.1418
      3 N         142.0773  140.9668  163.0162 N.3     1  UNL1       -0.1492
      4 C         143.3813  141.5454  163.4796 C.3     1  UNL1        0.1277
      5 C         144.0672  142.1526  162.2918 C.3     1  UNL1        0.1566
      6 O         144.9769  142.8319  161.3115 O.3     1  UNL1       -0.3804
      7 H         145.7708  143.1465  161.7715 H       1  UNL1        0.2105
      8 C         145.1375  142.4979  163.2843 C.3     1  UNL1        0.0975
      9 N         146.4465  141.7659  163.2609 N.3     1  UNL1       -0.3191
     10 H         146.2938  140.7881  163.5079 H       1  UNL1        0.1189
     11 H         147.0856  142.1905  163.9330 H       1  UNL1        0.1189
     12 S         141.0701  140.2624  163.8761 S.O2    1  UNL1        0.0643
     13 O         142.1642  139.8395  164.8111 O.2     1  UNL1       -0.1527
     14 O         139.9761  140.6853  162.9411 O.2     1  UNL1       -0.1527
     15 C         140.0629  139.5580  164.7359 C.ar    1  UNL1        0.1327
     16 C         139.6715  138.1434  164.4269 C.ar    1  UNL1        0.0216
     17 C         138.6643  137.4390  165.2867 C.ar    1  UNL1        0.0128
     18 C         138.0486  138.1491  166.4556 C.ar    1  UNL1        0.0586
     19 CL        137.0414  137.4447  167.3155 Cl      1  UNL1       -0.0822
     20 C         138.4401  139.5638  166.7647 C.ar    1  UNL1        0.0241
     21 C         139.4472  140.2682  165.9049 C.ar    1  UNL1        0.0771
     22 CL        139.8387  141.6829  166.2140 Cl      1  UNL1       -0.0808
     23 O         143.4846  142.3996  159.6947 O.3     1  UNL1       -0.4751
     24 C         140.8323  145.4365  157.6966 C.ar    1  UNL1        0.0960
     25 C         141.7853  144.6181  156.8769 C.ar    1  UNL1        0.0157
     26 C         142.6694  143.6058  157.5429 C.ar    1  UNL1        0.0377
     27 C         142.6005  143.4119  159.0287 C.ar    1  UNL1        0.1408
     28 C         141.6475  144.2303  159.8484 C.ar    1  UNL1        0.0672
     29 C         140.7634  145.2426  159.1824 C.ar    1  UNL1        0.1527
     30 F         139.8104  146.0610  160.0022 F       1  UNL1       -0.2034
     31 N         139.0641  147.4611  156.3645 N.1     1  UNL1       -0.1908
     32 C         139.9482  146.4488  157.0306 C.1     1  UNL1        0.1027
@<TRIPOS>BOND
     1    31    32    3
     2    32    24    1
     3    24    25   ar
     4    25    26   ar
     5    26    27   ar
     6    27    23    1
     7     1    23    1
     8     1     2    1
     9     2     3    1
    10     3    12    1
    11    12    13    2
    12    12    14    2
    13    12    15    1
    14    15    16   ar
    15    16    17   ar
    16    17    18   ar
    17    18    19    1
    18    18    20   ar
    19    20    21   ar
    20    21    22    1
    21     3     4    1
    22     4     5    1
    23     5     6    1
    24     5     8    1
    25     8     9    1
    26    27    28   ar
    27    28    29   ar
    28    29    30    1
    29    29    24   ar
    30     5     1    1
    31    21    15   ar
    32     6     7    1
    33     9    10    1
    34     9    11    1
@<TRIPOS>MOLECULE
*****
 32 34 0 0 0
SMALL
GASTEIGER

@<TRIPOS>ATOM
      1 C         140.2405  139.7428  164.4483 C.3     1  UNL1        0.2103
      2 C         141.4879  140.0003  163.6560 C.3     1  UNL1        0.1418
      3 N         141.0833  140.3447  162.2532 N.3     1  UNL1       -0.1492
      4 C         139.5858  140.2999  162.1786 C.3     1  UNL1        0.1277
      5 C         139.0649  139.9279  163.5351 C.3     1  UNL1        0.1566
      6 O         138.2633  139.5794  164.7541 O.3     1  UNL1       -0.3804
      7 H         137.3185  139.5955  164.5352 H       1  UNL1        0.2105
      8 C         137.7218  140.0402  162.8769 C.3     1  UNL1        0.0975
      9 N         136.9016  141.2836  163.0535 N.3     1  UNL1       -0.3191
     10 H         136.6208  141.3698  164.0303 H       1  UNL1        0.1189
     11 H         136.0707  141.2294  162.4644 H       1  UNL1        0.1189
     12 S         142.0129  140.6757  161.1235 S.O2    1  UNL1        0.0643
     13 O         143.1716  140.1641  161.9272 O.2     1  UNL1       -0.1527
     14 O         140.8542  141.1872  160.3199 O.2     1  UNL1       -0.1527
     15 C         142.9425  141.0066  159.9938 C.ar    1  UNL1        0.1327
     16 C         143.1733  140.0108  158.8962 C.ar    1  UNL1        0.0216
     17 C         144.1029  140.3418  157.7664 C.ar    1  UNL1        0.0128
     18 C         144.8017  141.6686  157.7344 C.ar    1  UNL1        0.0586
     19 CL        145.7313  141.9996  156.6047 Cl      1  UNL1       -0.0822
     20 C         144.5709  142.6645  158.8321 C.ar    1  UNL1        0.0241
     21 C         143.6413  142.3335  159.9618 C.ar    1  UNL1        0.0771
     22 CL        143.4105  143.3294  161.0595 Cl      1  UNL1       -0.0808
     23 O         140.1794  139.3662  165.8990 O.3     1  UNL1       -0.4751
     24 C         142.0373  142.0466  168.9996 C.ar    1  UNL1        0.0960
     25 C         142.6813  140.7355  168.6585 C.ar    1  UNL1        0.0157
     26 C         142.0620  139.8421  167.6250 C.ar    1  UNL1        0.0377
     27 C         140.7987  140.2596  166.9325 C.ar    1  UNL1        0.1408
     28 C         140.1547  141.5707  167.2736 C.ar    1  UNL1        0.0672
     29 C         140.7739  142.4641  168.3071 C.ar    1  UNL1        0.1527
     30 F         140.1298  143.7752  168.6482 F       1  UNL1       -0.2034
     31 N         143.2758  143.8335  171.0667 N.1     1  UNL1       -0.1908
     32 C         142.6565  142.9400  170.0332 C.1     1  UNL1        0.1027
@<TRIPOS>BOND
     1    31    32    3
     2    32    24    1
     3    24    25   ar
     4    25    26   ar
     5    26    27   ar
     6    27    23    1
     7     1    23    1
     8     1     2    1
     9     2     3    1
    10     3    12    1
    11    12    13    2
    12    12    14    2
    13    12    15    1
    14    15    16   ar
    15    16    17   ar
    16    17    18   ar
    17    18    19    1
    18    18    20   ar
    19    20    21   ar
    20    21    22    1
    21     3     4    1
    22     4     5    1
    23     5     6    1
    24     5     8    1
    25     8     9    1
    26    27    28   ar
    27    28    29   ar
    28    29    30    1
    29    29    24   ar
    30     5     1    1
    31    21    15   ar
    32     6     7    1
    33     9    10    1
    34     9    11    1
@<TRIPOS>MOLECULE
*****
 32 34 0 0 0
SMALL
GASTEIGER

@<TRIPOS>ATOM
      1 C         139.0353  140.3731  164.3093 C.3     1  UNL1        0.2103
      2 C         139.3382  141.6437  163.5719 C.3     1  UNL1        0.1418
      3 N         139.2498  141.3589  162.1018 N.3     1  UNL1       -0.1492
      4 C         138.8922  139.9122  161.9307 C.3     1  UNL1        0.1277
      5 C         138.7597  139.3029  163.2949 C.3     1  UNL1        0.1566
      6 O         138.5607  138.4319  164.4998 O.3     1  UNL1       -0.3804
      7 H         138.3362  137.5323  164.2149 H       1  UNL1        0.2105
      8 C         138.4424  138.0507  162.5325 C.3     1  UNL1        0.0975
      9 N         139.2359  137.6956  161.3102 N.3     1  UNL1       -0.3191
     10 H         139.0646  138.3876  160.5807 H       1  UNL1        0.1189
     11 H         138.9534  136.7737  160.9774 H       1  UNL1        0.1189
     12 S         139.4788  142.3472  160.9969 S.O2    1  UNL1        0.0643
     13 O         138.1213  142.9363  161.2426 O.2     1  UNL1       -0.1527
     14 O         140.8362  141.7580  160.7512 O.2     1  UNL1       -0.1527
     15 C         139.7078  143.3354  159.8920 C.ar    1  UNL1        0.1327
     16 C         139.3263  142.9876  158.4837 C.ar    1  UNL1        0.0216
     17 C         139.5553  143.9759  157.3788 C.ar    1  UNL1        0.0128
     18 C         140.1657  145.3120  157.6822 C.ar    1  UNL1        0.0586
     19 CL        140.3947  146.3003  156.5773 Cl      1  UNL1       -0.0822
     20 C         140.5472  145.6598  159.0905 C.ar    1  UNL1        0.0241
     21 C         140.3183  144.6716  160.1954 C.ar    1  UNL1        0.0771
     22 CL        140.6997  145.0194  161.6038 Cl      1  UNL1       -0.0808
     23 O         139.0121  140.2026  165.7994 O.3     1  UNL1       -0.4751
     24 C         142.3976  141.7954  168.2995 C.ar    1  UNL1        0.0960
     25 C         142.6011  140.5749  167.4516 C.ar    1  UNL1        0.0157
     26 C         141.4726  140.0440  166.6182 C.ar    1  UNL1        0.0377
     27 C         140.1406  140.7335  166.6328 C.ar    1  UNL1        0.1408
     28 C         139.9371  141.9540  167.4807 C.ar    1  UNL1        0.0672
     29 C         141.0656  142.4849  168.3141 C.ar    1  UNL1        0.1527
     30 F         140.8621  143.7055  169.1620 F       1  UNL1       -0.2034
     31 N         144.6547  142.8573  169.9663 N.1     1  UNL1       -0.1908
     32 C         143.5262  142.3264  169.1329 C.1     1  UNL1        0.1027
@<TRIPOS>BOND
     1    31    32    3
     2    32    24    1
     3    24    25   ar
     4    25    26   ar
     5    26    27   ar
     6    27    23    1
     7     1    23    1
     8     1     2    1
     9     2     3    1
    10     3    12    1
    11    12    13    2
    12    12    14    2
    13    12    15    1
    14    15    16   ar
    15    16    17   ar
    16    17    18   ar
    17    18    19    1
    18    18    20   ar
    19    20    21   ar
    20    21    22    1
    21     3     4    1
    22     4     5    1
    23     5     6    1
    24     5     8    1
    25     8     9    1
    26    27    28   ar
    27    28    29   ar
    28    29    30    1
    29    29    24   ar
    30     5     1    1
    31    21    15   ar
    32     6     7    1
    33     9    10    1
    34     9    11    1
@<TRIPOS>MOLECULE
*****
 32 34 0 0 0
SMALL
GASTEIGER

@<TRIPOS>ATOM
      1 C         140.6602  138.1934  162.2624 C.3     1  UNL1        0.2103
      2 C         141.1292  138.8081  163.5478 C.3     1  UNL1        0.1418
      3 N         139.9240  139.3002  164.2931 N.3     1  UNL1       -0.1492
      4 C         138.7102  138.9896  163.4683 C.3     1  UNL1        0.1277
      5 C         139.1652  138.3056  162.2132 C.3     1  UNL1        0.1566
      6 O         139.3142  137.6148  160.8902 O.3     1  UNL1       -0.3804
      7 H         138.4393  137.4904  160.4900 H       1  UNL1        0.2105
      8 C         137.7013  138.2733  161.8875 C.3     1  UNL1        0.0975
      9 N         137.0750  139.4106  161.1364 N.3     1  UNL1       -0.3191
     10 H         137.1037  140.2536  161.7099 H       1  UNL1        0.1189
     11 H         136.1055  139.1809  160.9180 H       1  UNL1        0.1189
     12 S         139.9313  139.9830  165.6287 S.O2    1  UNL1        0.0643
     13 O         138.5937  140.5905  165.3254 O.2     1  UNL1       -0.1527
     14 O         141.2688  139.3755  165.9319 O.2     1  UNL1       -0.1527
     15 C         139.9386  140.6658  166.9642 C.ar    1  UNL1        0.1327
     16 C         139.3971  139.9586  168.1710 C.ar    1  UNL1        0.0216
     17 C         139.4044  140.6413  169.5066 C.ar    1  UNL1        0.0128
     18 C         139.9533  142.0313  169.6353 C.ar    1  UNL1        0.0586
     19 CL        139.9606  142.7141  170.9709 Cl      1  UNL1       -0.0822
     20 C         140.4948  142.7385  168.4284 C.ar    1  UNL1        0.0241
     21 C         140.4875  142.0558  167.0929 C.ar    1  UNL1        0.0771
     22 CL        141.0291  142.7630  165.8860 Cl      1  UNL1       -0.0808
     23 O         141.5330  137.5751  161.2108 O.3     1  UNL1       -0.4751
     24 C         143.8106  140.1975  158.3497 C.ar    1  UNL1        0.0960
     25 C         143.0653  139.0003  157.8387 C.ar    1  UNL1        0.0157
     26 C         142.3061  138.1262  158.7924 C.ar    1  UNL1        0.0377
     27 C         142.2922  138.4492  160.2571 C.ar    1  UNL1        0.1408
     28 C         143.0375  139.6464  160.7681 C.ar    1  UNL1        0.0672
     29 C         143.7967  140.5206  159.8144 C.ar    1  UNL1        0.1527
     30 F         144.5420  141.7178  160.3255 F       1  UNL1       -0.2034
     31 N         145.3290  141.9458  156.4424 N.1     1  UNL1       -0.1908
     32 C         144.5698  141.0717  157.3960 C.1     1  UNL1        0.1027
@<TRIPOS>BOND
     1    31    32    3
     2    32    24    1
     3    24    25   ar
     4    25    26   ar
     5    26    27   ar
     6    27    23    1
     7     1    23    1
     8     1     2    1
     9     2     3    1
    10     3    12    1
    11    12    13    2
    12    12    14    2
    13    12    15    1
    14    15    16   ar
    15    16    17   ar
    16    17    18   ar
    17    18    19    1
    18    18    20   ar
    19    20    21   ar
    20    21    22    1
    21     3     4    1
    22     4     5    1
    23     5     6    1
    24     5     8    1
    25     8     9    1
    26    27    28   ar
    27    28    29   ar
    28    29    30    1
    29    29    24   ar
    30     5     1    1
    31    21    15   ar
    32     6     7    1
    33     9    10    1
    34     9    11    1
@<TRIPOS>MOLECULE
*****
 32 34 0 0 0
SMALL
GASTEIGER

@<TRIPOS>ATOM
      1 C         140.4166  138.6121  162.4111 C.3     1  UNL1        0.2103
      2 C         139.8929  139.9211  161.8988 C.3     1  UNL1        0.1418
      3 N         140.7659  140.3556  160.7590 N.3     1  UNL1       -0.1492
      4 C         141.8292  139.3151  160.5668 C.3     1  UNL1        0.1277
      5 C         141.6133  138.2376  161.5878 C.3     1  UNL1        0.1566
      6 O         141.6491  137.0290  162.4754 O.3     1  UNL1       -0.3804
      7 H         142.3928  136.4614  162.2190 H       1  UNL1        0.2105
      8 C         142.8175  137.6104  160.9501 C.3     1  UNL1        0.0975
      9 N         144.1932  138.0714  161.3304 N.3     1  UNL1       -0.3191
     10 H         144.3237  139.0370  161.0287 H       1  UNL1        0.1189
     11 H         144.8881  137.4771  160.8784 H       1  UNL1        0.1189
     12 S         140.6041  141.6102  159.9530 S.O2    1  UNL1        0.0643
     13 O         139.2485  141.8244  160.5585 O.2     1  UNL1       -0.1527
     14 O         141.9597  141.3960  159.3475 O.2     1  UNL1       -0.1527
     15 C         140.4423  142.8648  159.1469 C.ar    1  UNL1        0.1327
     16 C         139.8149  142.8061  157.7859 C.ar    1  UNL1        0.0216
     17 C         139.6530  144.0608  156.9798 C.ar    1  UNL1        0.0128
     18 C         140.1187  145.3741  157.5349 C.ar    1  UNL1        0.0586
     19 CL        139.9569  146.6287  156.7289 Cl      1  UNL1       -0.0822
     20 C         140.7462  145.4328  158.8961 C.ar    1  UNL1        0.0241
     21 C         140.9080  144.1782  159.7021 C.ar    1  UNL1        0.0771
     22 CL        141.5355  144.2369  161.0633 Cl      1  UNL1       -0.0808
     23 O         139.8441  137.8172  163.5470 O.3     1  UNL1       -0.4751
     24 C         139.4227  139.6907  167.6167 C.ar    1  UNL1        0.0960
     25 C         138.2607  138.9718  166.9981 C.ar    1  UNL1        0.0157
     26 C         138.4012  138.3473  165.6415 C.ar    1  UNL1        0.0377
     27 C         139.7037  138.4417  164.9036 C.ar    1  UNL1        0.1408
     28 C         140.8657  139.1607  165.5222 C.ar    1  UNL1        0.0672
     29 C         140.7252  139.7852  166.8788 C.ar    1  UNL1        0.1527
     30 F         141.8873  140.5042  167.4974 F       1  UNL1       -0.2034
     31 N         139.1418  140.9397  170.3298 N.1     1  UNL1       -0.1908
     32 C         139.2823  140.3152  168.9733 C.1     1  UNL1        0.1027
@<TRIPOS>BOND
     1    31    32    3
     2    32    24    1
     3    24    25   ar
     4    25    26   ar
     5    26    27   ar
     6    27    23    1
     7     1    23    1
     8     1     2    1
     9     2     3    1
    10     3    12    1
    11    12    13    2
    12    12    14    2
    13    12    15    1
    14    15    16   ar
    15    16    17   ar
    16    17    18   ar
    17    18    19    1
    18    18    20   ar
    19    20    21   ar
    20    21    22    1
    21     3     4    1
    22     4     5    1
    23     5     6    1
    24     5     8    1
    25     8     9    1
    26    27    28   ar
    27    28    29   ar
    28    29    30    1
    29    29    24   ar
    30     5     1    1
    31    21    15   ar
    32     6     7    1
    33     9    10    1
    34     9    11    1
@<TRIPOS>MOLECULE
*****
 32 34 0 0 0
SMALL
GASTEIGER

@<TRIPOS>ATOM
      1 C         142.3222  139.7207  164.5736 C.3     1  UNL1        0.2103
      2 C         142.4644  141.0252  163.8468 C.3     1  UNL1        0.1418
      3 N         142.0214  140.8166  162.4289 N.3     1  UNL1       -0.1492
      4 C         141.6053  139.3831  162.2795 C.3     1  UNL1        0.1277
      5 C         141.7913  138.7059  163.6049 C.3     1  UNL1        0.1566
      6 O         141.8696  137.7759  164.7792 O.3     1  UNL1       -0.3804
      7 H         141.5661  136.8937  164.5137 H       1  UNL1        0.2105
      8 C         141.2767  137.4966  162.8818 C.3     1  UNL1        0.0975
      9 N         140.2972  137.6558  161.7570 N.3     1  UNL1       -0.3191
     10 H         139.4184  138.0239  162.1209 H       1  UNL1        0.1189
     11 H         140.1312  136.7493  161.3199 H       1  UNL1        0.1189
     12 S         141.9984  141.8584  161.3500 S.O2    1  UNL1        0.0643
     13 O         142.9319  142.7129  162.1553 O.2     1  UNL1       -0.1527
     14 O         141.0648  141.0039  160.5448 O.2     1  UNL1       -0.1527
     15 C         141.9754  142.9002  160.2711 C.ar    1  UNL1        0.1327
     16 C         142.9575  142.8299  159.1396 C.ar    1  UNL1        0.0216
     17 C         142.9345  143.8717  158.0607 C.ar    1  UNL1        0.0128
     18 C         141.9294  144.9839  158.1133 C.ar    1  UNL1        0.0586
     19 CL        141.9064  146.0257  157.0344 Cl      1  UNL1       -0.0822
     20 C         140.9472  145.0542  159.2449 C.ar    1  UNL1        0.0241
     21 C         140.9702  144.0124  160.3238 C.ar    1  UNL1        0.0771
     22 CL        139.9880  144.0827  161.4554 Cl      1  UNL1       -0.0808
     23 O         142.6529  139.4744  166.0158 O.3     1  UNL1       -0.4751
     24 C         140.5492  141.8083  169.2371 C.ar    1  UNL1        0.0960
     25 C         139.8098  140.7504  168.4731 C.ar    1  UNL1        0.0157
     26 C         140.5110  139.9724  167.3993 C.ar    1  UNL1        0.0377
     27 C         141.9517  140.2524  167.0896 C.ar    1  UNL1        0.1408
     28 C         142.6911  141.3103  167.8536 C.ar    1  UNL1        0.0672
     29 C         141.9899  142.0883  168.9274 C.ar    1  UNL1        0.1527
     30 F         142.7294  143.1464  169.6915 F       1  UNL1       -0.2034
     31 N         139.1468  143.3643  171.3847 N.1     1  UNL1       -0.1908
     32 C         139.8480  142.5863  170.3109 C.1     1  UNL1        0.1027
@<TRIPOS>BOND
     1    31    32    3
     2    32    24    1
     3    24    25   ar
     4    25    26   ar
     5    26    27   ar
     6    27    23    1
     7     1    23    1
     8     1     2    1
     9     2     3    1
    10     3    12    1
    11    12    13    2
    12    12    14    2
    13    12    15    1
    14    15    16   ar
    15    16    17   ar
    16    17    18   ar
    17    18    19    1
    18    18    20   ar
    19    20    21   ar
    20    21    22    1
    21     3     4    1
    22     4     5    1
    23     5     6    1
    24     5     8    1
    25     8     9    1
    26    27    28   ar
    27    28    29   ar
    28    29    30    1
    29    29    24   ar
    30     5     1    1
    31    21    15   ar
    32     6     7    1
    33     9    10    1
    34     9    11    1
