@<TRIPOS>MOLECULE
*****
 30 34 0 0 0
SMALL
GASTEIGER

@<TRIPOS>ATOM
      1 N         142.2029  138.6873  164.4796 N.3     1  UNL1       -0.2700
      2 C         140.9567  138.0122  164.9706 C.3     1  UNL1        0.0897
      3 C         139.8285  137.7377  164.0209 C.3     1  UNL1        0.0897
      4 N         139.9466  138.1383  162.5802 N.3     1  UNL1       -0.2700
      5 C         141.1928  138.8135  162.0892 C.3     1  UNL1        0.0897
      6 C         142.3209  139.0880  163.0389 C.3     1  UNL1        0.0897
      7 C         143.3311  138.9619  165.4292 C.3     1  UNL1        0.0769
      8 C         143.1267  138.7928  166.9056 C.3     1  UNL1        0.0437
      9 O         140.1737  144.4048  170.1331 O.2     1  UNL1       -0.2449
     10 C         140.6099  142.9847  170.3405 C.2     1  UNL1        0.3413
     11 O         140.4963  142.2049  171.6168 O.3     1  UNL1       -0.4404
     12 C         141.0525  140.8334  171.3730 C.3     1  UNL1        0.2356
     13 C         141.5098  140.7655  169.9460 C.ar    1  UNL1        0.0272
     14 C         142.1399  139.6647  169.1453 C.ar    1  UNL1       -0.0047
     15 C         142.4965  139.8936  167.7064 C.ar    1  UNL1       -0.0210
     16 C         142.2230  141.2232  167.0683 C.ar    1  UNL1       -0.0040
     17 C         141.5928  142.3240  167.8690 C.ar    1  UNL1        0.0059
     18 C         141.2362  142.0951  169.3079 C.ar    1  UNL1        0.0751
     19 C         138.8184  137.8638  161.6306 C.3     1  UNL1        0.0769
     20 C         137.6496  138.8015  161.5634 C.3     1  UNL1        0.0437
     21 C         137.8525  140.2704  161.7901 C.ar    1  UNL1       -0.0210
     22 C         138.2348  141.1603  160.6447 C.ar    1  UNL1       -0.0040
     23 C         138.4377  142.6291  160.8715 C.ar    1  UNL1        0.0059
     24 C         138.2583  143.2079  162.2436 C.ar    1  UNL1        0.0751
     25 C         137.8761  142.3181  163.3890 C.ar    1  UNL1        0.0272
     26 C         137.6732  140.8493  163.1622 C.ar    1  UNL1       -0.0047
     27 C         137.7709  143.1675  164.6208 C.3     1  UNL1        0.2356
     28 O         138.0881  144.5823  164.2367 O.3     1  UNL1       -0.4404
     29 C         138.3894  144.6074  162.7675 C.2     1  UNL1        0.3413
     30 O         138.7571  145.8191  161.9634 O.2     1  UNL1       -0.2449
@<TRIPOS>BOND
     1     9    10    2
     2    10    11    1
     3    11    12    1
     4    12    13    1
     5    13    14   ar
     6    14    15   ar
     7    15     8    1
     8     8     7    1
     9     7     1    1
    10     1     2    1
    11     2     3    1
    12     3     4    1
    13     4    19    1
    14    19    20    1
    15    20    21    1
    16    21    22   ar
    17    22    23   ar
    18    23    24   ar
    19    24    25   ar
    20    25    26   ar
    21    25    27    1
    22    27    28    1
    23    28    29    1
    24    29    30    2
    25     4     5    1
    26     5     6    1
    27    15    16   ar
    28    16    17   ar
    29    17    18   ar
    30    18    10    1
    31    18    13   ar
    32     6     1    1
    33    26    21   ar
    34    29    24    1
@<TRIPOS>MOLECULE
*****
 30 34 0 0 0
SMALL
GASTEIGER

@<TRIPOS>ATOM
      1 N         144.0180  139.9177  163.9600 N.3     1  UNL1       -0.2700
      2 C         143.3727  139.8888  165.3138 C.3     1  UNL1        0.0897
      3 C         142.1823  139.0094  165.5586 C.3     1  UNL1        0.0897
      4 N         141.6374  138.1589  164.4497 N.3     1  UNL1       -0.2700
      5 C         142.2827  138.1878  163.0959 C.3     1  UNL1        0.0897
      6 C         143.4730  139.0671  162.8511 C.3     1  UNL1        0.0897
      7 C         145.2083  140.7970  163.7152 C.3     1  UNL1        0.0769
      8 C         145.1355  142.2621  164.0285 C.3     1  UNL1        0.0437
      9 O         139.9268  146.6226  161.9101 O.2     1  UNL1       -0.2449
     10 C         140.6885  145.3840  161.5419 C.2     1  UNL1        0.3413
     11 O         140.4752  144.5503  160.3133 O.3     1  UNL1       -0.4404
     12 C         141.4521  143.4127  160.3498 C.3     1  UNL1        0.2356
     13 C         142.2692  143.5432  161.6010 C.ar    1  UNL1        0.0272
     14 C         143.3819  142.7100  162.1645 C.ar    1  UNL1       -0.0047
     15 C         144.0227  143.0952  163.4649 C.ar    1  UNL1       -0.0210
     16 C         143.5508  144.3136  164.2017 C.ar    1  UNL1       -0.0040
     17 C         142.4380  145.1468  163.6381 C.ar    1  UNL1        0.0059
     18 C         141.7972  144.7615  162.3378 C.ar    1  UNL1        0.0751
     19 C         140.4471  137.2796  164.6946 C.3     1  UNL1        0.0769
     20 C         139.1007  137.8921  164.9434 C.3     1  UNL1        0.0437
     21 C         138.7721  139.2392  164.3711 C.ar    1  UNL1       -0.0210
     22 C         138.5589  140.4102  165.2839 C.ar    1  UNL1       -0.0040
     23 C         138.2304  141.7571  164.7115 C.ar    1  UNL1        0.0059
     24 C         138.1150  141.9331  163.2264 C.ar    1  UNL1        0.0751
     25 C         138.3282  140.7621  162.3136 C.ar    1  UNL1        0.0272
     26 C         138.6568  139.4151  162.8859 C.ar    1  UNL1       -0.0047
     27 C         138.1503  141.2365  160.9017 C.3     1  UNL1        0.2356
     28 O         137.8272  142.7008  160.9420 O.3     1  UNL1       -0.4404
     29 C         137.8054  143.1313  162.3787 C.2     1  UNL1        0.3413
     30 O         137.5234  144.5168  162.8798 O.2     1  UNL1       -0.2449
@<TRIPOS>BOND
     1     9    10    2
     2    10    11    1
     3    11    12    1
     4    12    13    1
     5    13    14   ar
     6    14    15   ar
     7    15     8    1
     8     8     7    1
     9     7     1    1
    10     1     2    1
    11     2     3    1
    12     3     4    1
    13     4    19    1
    14    19    20    1
    15    20    21    1
    16    21    22   ar
    17    22    23   ar
    18    23    24   ar
    19    24    25   ar
    20    25    26   ar
    21    25    27    1
    22    27    28    1
    23    28    29    1
    24    29    30    2
    25     4     5    1
    26     5     6    1
    27    15    16   ar
    28    16    17   ar
    29    17    18   ar
    30    18    10    1
    31    18    13   ar
    32     6     1    1
    33    26    21   ar
    34    29    24    1
@<TRIPOS>MOLECULE
*****
 30 34 0 0 0
SMALL
GASTEIGER

@<TRIPOS>ATOM
      1 N         141.7019  138.2482  164.4591 N.3     1  UNL1       -0.2700
      2 C         142.3959  138.2136  163.1298 C.3     1  UNL1        0.0897
      3 C         143.5845  139.0942  162.8811 C.3     1  UNL1        0.0897
      4 N         144.0791  140.0094  163.9617 N.3     1  UNL1       -0.2700
      5 C         143.3851  140.0440  165.2911 C.3     1  UNL1        0.0897
      6 C         142.1965  139.1634  165.5398 C.3     1  UNL1        0.0897
      7 C         140.5133  137.3677  164.7078 C.3     1  UNL1        0.0769
      8 C         139.1912  137.6975  164.0806 C.3     1  UNL1        0.0437
      9 O         137.4798  144.5523  163.2356 O.2     1  UNL1       -0.2449
     10 C         137.8679  143.3054  162.4978 C.2     1  UNL1        0.3413
     11 O         138.0300  143.1742  161.0124 O.3     1  UNL1       -0.4404
     12 C         138.4244  141.7584  160.7124 C.3     1  UNL1        0.2356
     13 C         138.5060  141.0145  162.0124 C.ar    1  UNL1        0.0272
     14 C         138.8491  139.5902  162.3340 C.ar    1  UNL1       -0.0047
     15 C         138.8482  139.1219  163.7590 C.ar    1  UNL1       -0.0210
     16 C         138.5043  140.0780  164.8624 C.ar    1  UNL1       -0.0040
     17 C         138.1612  141.5024  164.5409 C.ar    1  UNL1        0.0059
     18 C         138.1621  141.9706  163.1159 C.ar    1  UNL1        0.0751
     19 C         145.2677  140.8899  163.7130 C.3     1  UNL1        0.0769
     20 C         145.1857  142.3596  164.0016 C.3     1  UNL1        0.0437
     21 C         144.0687  143.1765  163.4227 C.ar    1  UNL1       -0.0210
     22 C         143.4224  144.2522  164.2443 C.ar    1  UNL1       -0.0040
     23 C         142.3054  145.0690  163.6654 C.ar    1  UNL1        0.0059
     24 C         141.8347  144.8100  162.2650 C.ar    1  UNL1        0.0751
     25 C         142.4809  143.7342  161.4434 C.ar    1  UNL1        0.0272
     26 C         143.5979  142.9175  162.0222 C.ar    1  UNL1       -0.0047
     27 C         141.8088  143.7081  160.1027 C.3     1  UNL1        0.2356
     28 O         140.7471  144.7678  160.0956 O.3     1  UNL1       -0.4404
     29 C         140.7631  145.4488  161.4320 C.2     1  UNL1        0.3413
     30 O         139.8652  146.5714  161.8603 O.2     1  UNL1       -0.2449
@<TRIPOS>BOND
     1     9    10    2
     2    10    11    1
     3    11    12    1
     4    12    13    1
     5    13    14   ar
     6    14    15   ar
     7    15     8    1
     8     8     7    1
     9     7     1    1
    10     1     2    1
    11     2     3    1
    12     3     4    1
    13     4    19    1
    14    19    20    1
    15    20    21    1
    16    21    22   ar
    17    22    23   ar
    18    23    24   ar
    19    24    25   ar
    20    25    26   ar
    21    25    27    1
    22    27    28    1
    23    28    29    1
    24    29    30    2
    25     4     5    1
    26     5     6    1
    27    15    16   ar
    28    16    17   ar
    29    17    18   ar
    30    18    10    1
    31    18    13   ar
    32     6     1    1
    33    26    21   ar
    34    29    24    1
@<TRIPOS>MOLECULE
*****
 30 34 0 0 0
SMALL
GASTEIGER

@<TRIPOS>ATOM
      1 N         140.0526  138.1900  162.4746 N.3     1  UNL1       -0.2700
      2 C         140.1259  137.4474  163.7758 C.3     1  UNL1        0.0897
      3 C         141.2764  137.6819  164.7094 C.3     1  UNL1        0.0897
      4 N         142.3535  138.6589  164.3418 N.3     1  UNL1       -0.2700
      5 C         142.2802  139.4015  163.0405 C.3     1  UNL1        0.0897
      6 C         141.1298  139.1671  162.1070 C.3     1  UNL1        0.0897
      7 C         138.9022  137.9556  161.5410 C.3     1  UNL1        0.0769
      8 C         137.7105  138.8658  161.5759 C.3     1  UNL1        0.0437
      9 O         138.7413  145.8953  161.9710 O.2     1  UNL1       -0.2449
     10 C         138.3834  144.6808  162.7753 C.2     1  UNL1        0.3413
     11 O         138.0768  144.6544  164.2434 O.3     1  UNL1       -0.4404
     12 C         137.7732  143.2367  164.6280 C.3     1  UNL1        0.2356
     13 C         137.8922  142.3869  163.3977 C.ar    1  UNL1        0.0272
     14 C         137.7059  140.9157  163.1722 C.ar    1  UNL1       -0.0047
     15 C         137.8968  140.3371  161.8015 C.ar    1  UNL1       -0.0210
     16 C         138.2739  141.2295  160.6565 C.ar    1  UNL1       -0.0040
     17 C         138.4602  142.7007  160.8820 C.ar    1  UNL1        0.0059
     18 C         138.2694  143.2794  162.2526 C.ar    1  UNL1        0.0751
     19 C         143.5038  138.8933  165.2753 C.3     1  UNL1        0.0769
     20 C         143.4058  138.4636  166.7091 C.3     1  UNL1        0.0437
     21 C         142.7304  139.3500  167.7132 C.ar    1  UNL1       -0.0210
     22 C         142.7177  138.9668  169.1634 C.ar    1  UNL1       -0.0040
     23 C         142.0423  139.8532  170.1674 C.ar    1  UNL1        0.0059
     24 C         141.3795  141.1227  169.7213 C.ar    1  UNL1        0.0751
     25 C         141.3921  141.5058  168.2711 C.ar    1  UNL1        0.0272
     26 C         142.0675  140.6195  167.2671 C.ar    1  UNL1       -0.0047
     27 C         140.6612  142.8080  168.1294 C.3     1  UNL1        0.2356
     28 O         140.1968  143.2297  169.4920 O.3     1  UNL1       -0.4404
     29 C         140.6408  142.1881  170.4759 C.2     1  UNL1        0.3413
     30 O         140.3900  142.2083  171.9546 O.2     1  UNL1       -0.2449
@<TRIPOS>BOND
     1     9    10    2
     2    10    11    1
     3    11    12    1
     4    12    13    1
     5    13    14   ar
     6    14    15   ar
     7    15     8    1
     8     8     7    1
     9     7     1    1
    10     1     2    1
    11     2     3    1
    12     3     4    1
    13     4    19    1
    14    19    20    1
    15    20    21    1
    16    21    22   ar
    17    22    23   ar
    18    23    24   ar
    19    24    25   ar
    20    25    26   ar
    21    25    27    1
    22    27    28    1
    23    28    29    1
    24    29    30    2
    25     4     5    1
    26     5     6    1
    27    15    16   ar
    28    16    17   ar
    29    17    18   ar
    30    18    10    1
    31    18    13   ar
    32     6     1    1
    33    26    21   ar
    34    29    24    1
@<TRIPOS>MOLECULE
*****
 30 34 0 0 0
SMALL
GASTEIGER

@<TRIPOS>ATOM
      1 N         139.6390  138.5243  162.2707 N.3     1  UNL1       -0.2700
      2 C         139.2274  137.8024  163.5195 C.3     1  UNL1        0.0897
      3 C         140.1950  137.6600  164.6569 C.3     1  UNL1        0.0897
      4 N         141.5741  138.2394  164.5454 N.3     1  UNL1       -0.2700
      5 C         141.9856  138.9613  163.2966 C.3     1  UNL1        0.0897
      6 C         141.0181  139.1037  162.1593 C.3     1  UNL1        0.0897
      7 C         138.6715  138.6667  161.1333 C.3     1  UNL1        0.0769
      8 C         137.7267  139.8312  161.0937 C.3     1  UNL1        0.0437
      9 O         138.5277  145.1722  165.7266 O.2     1  UNL1       -0.2449
     10 C         138.8633  144.7197  164.3364 C.2     1  UNL1        0.3413
     11 O         139.6588  145.4917  163.3259 O.3     1  UNL1       -0.4404
     12 C         139.7495  144.6648  162.0777 C.3     1  UNL1        0.2356
     13 C         139.0102  143.3817  162.3168 C.ar    1  UNL1        0.0272
     14 C         138.7649  142.1869  161.4438 C.ar    1  UNL1       -0.0047
     15 C         137.9720  141.0260  161.9668 C.ar    1  UNL1       -0.0210
     16 C         137.4243  141.0600  163.3628 C.ar    1  UNL1       -0.0040
     17 C         137.6696  142.2548  164.2358 C.ar    1  UNL1        0.0059
     18 C         138.4625  143.4156  163.7129 C.ar    1  UNL1        0.0751
     19 C         142.5416  138.0969  165.6827 C.3     1  UNL1        0.0769
     20 C         143.2346  139.3077  166.2340 C.3     1  UNL1        0.0437
     21 C         142.4889  140.2596  167.1216 C.ar    1  UNL1       -0.0210
     22 C         142.8257  141.7211  167.1046 C.ar    1  UNL1       -0.0040
     23 C         142.0799  142.6730  167.9922 C.ar    1  UNL1        0.0059
     24 C         140.9974  142.1632  168.8969 C.ar    1  UNL1        0.0751
     25 C         140.6606  140.7016  168.9139 C.ar    1  UNL1        0.0272
     26 C         141.4063  139.7498  168.0263 C.ar    1  UNL1       -0.0047
     27 C         139.5527  140.4928  169.9032 C.3     1  UNL1        0.2356
     28 O         139.2047  141.8253  170.4977 O.3     1  UNL1       -0.4404
     29 C         140.0976  142.8577  169.8757 C.2     1  UNL1        0.3413
     30 O         140.0918  144.3266  170.1793 O.2     1  UNL1       -0.2449
@<TRIPOS>BOND
     1     9    10    2
     2    10    11    1
     3    11    12    1
     4    12    13    1
     5    13    14   ar
     6    14    15   ar
     7    15     8    1
     8     8     7    1
     9     7     1    1
    10     1     2    1
    11     2     3    1
    12     3     4    1
    13     4    19    1
    14    19    20    1
    15    20    21    1
    16    21    22   ar
    17    22    23   ar
    18    23    24   ar
    19    24    25   ar
    20    25    26   ar
    21    25    27    1
    22    27    28    1
    23    28    29    1
    24    29    30    2
    25     4     5    1
    26     5     6    1
    27    15    16   ar
    28    16    17   ar
    29    17    18   ar
    30    18    10    1
    31    18    13   ar
    32     6     1    1
    33    26    21   ar
    34    29    24    1
@<TRIPOS>MOLECULE
*****
 30 34 0 0 0
SMALL
GASTEIGER

@<TRIPOS>ATOM
      1 N         142.3005  138.0750  162.5153 N.3     1  UNL1       -0.2700
      2 C         140.9314  137.8095  161.9630 C.3     1  UNL1        0.0897
      3 C         139.7628  137.6655  162.8924 C.3     1  UNL1        0.0897
      4 N         139.9632  137.7871  164.3739 N.3     1  UNL1       -0.2700
      5 C         141.3324  138.0526  164.9262 C.3     1  UNL1        0.0897
      6 C         142.5010  138.1966  163.9970 C.3     1  UNL1        0.0897
      7 C         143.4692  138.2190  161.5861 C.3     1  UNL1        0.0769
      8 C         143.8814  139.5784  161.1045 C.3     1  UNL1        0.0437
      9 O         145.2855  144.4298  166.1170 O.2     1  UNL1       -0.2449
     10 C         144.5151  144.1887  164.8527 C.2     1  UNL1        0.3413
     11 O         143.6210  145.1761  164.1631 O.3     1  UNL1       -0.4404
     12 C         143.0570  144.5155  162.9402 C.3     1  UNL1        0.2356
     13 C         143.6025  143.1197  162.8740 C.ar    1  UNL1        0.0272
     14 C         143.3951  142.0066  161.8902 C.ar    1  UNL1       -0.0047
     15 C         144.0888  140.6916  162.0884 C.ar    1  UNL1       -0.0210
     16 C         144.9900  140.4896  163.2703 C.ar    1  UNL1       -0.0040
     17 C         145.1975  141.6027  164.2542 C.ar    1  UNL1        0.0059
     18 C         144.5037  142.9178  164.0560 C.ar    1  UNL1        0.0751
     19 C         138.7946  137.6431  165.3032 C.3     1  UNL1        0.0769
     20 C         138.1034  138.8641  165.8337 C.3     1  UNL1        0.0437
     21 C         138.3174  140.1937  165.1730 C.ar    1  UNL1       -0.0210
     22 C         137.5381  140.5542  163.9432 C.ar    1  UNL1       -0.0040
     23 C         137.7521  141.8838  163.2826 C.ar    1  UNL1        0.0059
     24 C         138.7455  142.8528  163.8519 C.ar    1  UNL1        0.0751
     25 C         139.5249  142.4923  165.0818 C.ar    1  UNL1        0.0272
     26 C         139.3108  141.1627  165.7423 C.ar    1  UNL1       -0.0047
     27 C         140.4287  143.6431  165.4117 C.3     1  UNL1        0.2356
     28 O         140.2079  144.7148  164.3857 O.3     1  UNL1       -0.4404
     29 C         139.1677  144.2265  163.4217 C.2     1  UNL1        0.3413
     30 O         138.6418  144.9794  162.2357 O.2     1  UNL1       -0.2449
@<TRIPOS>BOND
     1     9    10    2
     2    10    11    1
     3    11    12    1
     4    12    13    1
     5    13    14   ar
     6    14    15   ar
     7    15     8    1
     8     8     7    1
     9     7     1    1
    10     1     2    1
    11     2     3    1
    12     3     4    1
    13     4    19    1
    14    19    20    1
    15    20    21    1
    16    21    22   ar
    17    22    23   ar
    18    23    24   ar
    19    24    25   ar
    20    25    26   ar
    21    25    27    1
    22    27    28    1
    23    28    29    1
    24    29    30    2
    25     4     5    1
    26     5     6    1
    27    15    16   ar
    28    16    17   ar
    29    17    18   ar
    30    18    10    1
    31    18    13   ar
    32     6     1    1
    33    26    21   ar
    34    29    24    1
@<TRIPOS>MOLECULE
*****
 30 34 0 0 0
SMALL
GASTEIGER

@<TRIPOS>ATOM
      1 N         137.9437  140.0605  162.1879 N.3     1  UNL1       -0.2700
      2 C         137.7714  140.1685  163.6740 C.3     1  UNL1        0.0897
      3 C         137.6986  141.5183  164.3244 C.3     1  UNL1        0.0897
      4 N         137.7980  142.7599  163.4887 N.3     1  UNL1       -0.2700
      5 C         137.9704  142.6518  162.0025 C.3     1  UNL1        0.0897
      6 C         138.0432  141.3021  161.3521 C.3     1  UNL1        0.0897
      7 C         138.0165  138.7108  161.5375 C.3     1  UNL1        0.0769
      8 C         139.3433  138.0333  161.3624 C.3     1  UNL1        0.0437
      9 O         143.7877  138.1443  166.9181 O.2     1  UNL1       -0.2449
     10 C         143.6581  138.5081  165.4687 C.2     1  UNL1        0.3413
     11 O         144.7164  139.1526  164.6234 O.3     1  UNL1       -0.4404
     12 C         144.1597  139.3340  163.2424 C.3     1  UNL1        0.2356
     13 C         142.7574  138.8016  163.2342 C.ar    1  UNL1        0.0272
     14 C         141.7227  138.7156  162.1516 C.ar    1  UNL1       -0.0047
     15 C         140.3780  138.1192  162.4450 C.ar    1  UNL1       -0.0210
     16 C         140.0680  137.6087  163.8210 C.ar    1  UNL1       -0.0040
     17 C         141.1027  137.6947  164.9035 C.ar    1  UNL1        0.0059
     18 C         142.4474  138.2911  164.6102 C.ar    1  UNL1        0.0751
     19 C         137.7252  144.1095  164.1391 C.3     1  UNL1        0.0769
     20 C         138.8101  144.5498  165.0766 C.3     1  UNL1        0.0437
     21 C         140.2296  144.1318  164.8304 C.ar    1  UNL1       -0.0210
     22 C         140.8955  143.1566  165.7553 C.ar    1  UNL1       -0.0040
     23 C         142.3148  142.7386  165.5090 C.ar    1  UNL1        0.0059
     24 C         143.0682  143.2958  164.3377 C.ar    1  UNL1        0.0751
     25 C         142.4023  144.2709  163.4128 C.ar    1  UNL1        0.0272
     26 C         140.9830  144.6889  163.6591 C.ar    1  UNL1       -0.0047
     27 C         143.3896  144.6486  162.3486 C.3     1  UNL1        0.2356
     28 O         144.6658  143.9069  162.6158 O.3     1  UNL1       -0.4404
     29 C         144.4671  143.0708  163.8452 C.2     1  UNL1        0.3413
     30 O         145.4881  142.1682  164.4720 O.2     1  UNL1       -0.2449
@<TRIPOS>BOND
     1     9    10    2
     2    10    11    1
     3    11    12    1
     4    12    13    1
     5    13    14   ar
     6    14    15   ar
     7    15     8    1
     8     8     7    1
     9     7     1    1
    10     1     2    1
    11     2     3    1
    12     3     4    1
    13     4    19    1
    14    19    20    1
    15    20    21    1
    16    21    22   ar
    17    22    23   ar
    18    23    24   ar
    19    24    25   ar
    20    25    26   ar
    21    25    27    1
    22    27    28    1
    23    28    29    1
    24    29    30    2
    25     4     5    1
    26     5     6    1
    27    15    16   ar
    28    16    17   ar
    29    17    18   ar
    30    18    10    1
    31    18    13   ar
    32     6     1    1
    33    26    21   ar
    34    29    24    1
@<TRIPOS>MOLECULE
*****
 30 34 0 0 0
SMALL
GASTEIGER

@<TRIPOS>ATOM
      1 N         141.5955  138.0649  162.1928 N.3     1  UNL1       -0.2700
      2 C         140.4625  139.0270  161.9913 C.3     1  UNL1        0.0897
      3 C         139.4108  139.1796  163.0500 C.3     1  UNL1        0.0897
      4 N         139.4922  138.3701  164.3102 N.3     1  UNL1       -0.2700
      5 C         140.6252  137.4080  164.5117 C.3     1  UNL1        0.0897
      6 C         141.6769  137.2553  163.4531 C.3     1  UNL1        0.0897
      7 C         142.6471  137.9122  161.1342 C.3     1  UNL1        0.0769
      8 C         143.9769  138.5872  161.2952 C.3     1  UNL1        0.0437
      9 O         144.7773  143.8290  166.0403 O.2     1  UNL1       -0.2449
     10 C         144.4094  143.5361  164.6159 C.2     1  UNL1        0.3413
     11 O         144.0197  144.5484  163.5799 O.3     1  UNL1       -0.4404
     12 C         143.7361  143.8173  162.3012 C.3     1  UNL1        0.2356
     13 C         143.9506  142.3532  162.5469 C.ar    1  UNL1        0.0272
     14 C         143.8206  141.1559  161.6528 C.ar    1  UNL1       -0.0047
     15 C         144.1068  139.7847  162.1893 C.ar    1  UNL1       -0.0210
     16 C         144.5230  139.6108  163.6199 C.ar    1  UNL1       -0.0040
     17 C         144.6529  140.8082  164.5140 C.ar    1  UNL1        0.0059
     18 C         144.3667  142.1794  163.9775 C.ar    1  UNL1        0.0751
     19 C         138.4406  138.5227  165.3688 C.3     1  UNL1        0.0769
     20 C         138.3073  139.8186  166.1123 C.3     1  UNL1        0.0437
     21 C         139.4755  140.3689  166.8756 C.ar    1  UNL1       -0.0210
     22 C         140.4940  141.2201  166.1771 C.ar    1  UNL1       -0.0040
     23 C         141.6621  141.7704  166.9405 C.ar    1  UNL1        0.0059
     24 C         141.8117  141.4694  168.4024 C.ar    1  UNL1        0.0751
     25 C         140.7931  140.6182  169.1009 C.ar    1  UNL1        0.0272
     26 C         139.6250  140.0679  168.3375 C.ar    1  UNL1       -0.0047
     27 C         141.2019  140.4920  170.5386 C.3     1  UNL1        0.2356
     28 O         142.4731  141.2653  170.7286 O.3     1  UNL1       -0.4404
     29 C         142.8500  141.8694  169.4084 C.2     1  UNL1        0.3413
     30 O         144.0538  142.7234  169.1410 O.2     1  UNL1       -0.2449
@<TRIPOS>BOND
     1     9    10    2
     2    10    11    1
     3    11    12    1
     4    12    13    1
     5    13    14   ar
     6    14    15   ar
     7    15     8    1
     8     8     7    1
     9     7     1    1
    10     1     2    1
    11     2     3    1
    12     3     4    1
    13     4    19    1
    14    19    20    1
    15    20    21    1
    16    21    22   ar
    17    22    23   ar
    18    23    24   ar
    19    24    25   ar
    20    25    26   ar
    21    25    27    1
    22    27    28    1
    23    28    29    1
    24    29    30    2
    25     4     5    1
    26     5     6    1
    27    15    16   ar
    28    16    17   ar
    29    17    18   ar
    30    18    10    1
    31    18    13   ar
    32     6     1    1
    33    26    21   ar
    34    29    24    1
@<TRIPOS>MOLECULE
*****
 30 34 0 0 0
SMALL
GASTEIGER

@<TRIPOS>ATOM
      1 N         143.0706  143.6955  163.0784 N.3     1  UNL1       -0.2700
      2 C         142.2733  143.0713  161.9718 C.3     1  UNL1        0.0897
      3 C         140.8447  143.4750  161.7568 C.3     1  UNL1        0.0897
      4 N         140.2134  144.5029  162.6484 N.3     1  UNL1       -0.2700
      5 C         141.0107  145.1271  163.7550 C.3     1  UNL1        0.0897
      6 C         142.4393  144.7234  163.9701 C.3     1  UNL1        0.0897
      7 C         144.4991  143.2919  163.2935 C.3     1  UNL1        0.0769
      8 C         144.8430  142.2848  164.3506 C.3     1  UNL1        0.0437
      9 O         139.7008  139.5156  168.4153 O.2     1  UNL1       -0.2449
     10 C         140.7148  140.6182  168.3362 C.2     1  UNL1        0.3413
     11 O         140.9454  141.6798  169.3705 O.3     1  UNL1       -0.4404
     12 C         142.0493  142.5704  168.8824 C.3     1  UNL1        0.2356
     13 C         142.5008  142.0593  167.5464 C.ar    1  UNL1        0.0272
     14 C         143.5564  142.5366  166.5937 C.ar    1  UNL1       -0.0047
     15 C         143.7873  141.8074  165.3034 C.ar    1  UNL1       -0.0210
     16 C         142.9625  140.6009  164.9658 C.ar    1  UNL1       -0.0040
     17 C         141.9069  140.1235  165.9185 C.ar    1  UNL1        0.0059
     18 C         141.6760  140.8527  167.2088 C.ar    1  UNL1        0.0751
     19 C         138.7849  144.9065  162.4334 C.3     1  UNL1        0.0769
     20 C         137.6760  144.0737  163.0050 C.3     1  UNL1        0.0437
     21 C         137.9240  142.6381  163.3624 C.ar    1  UNL1       -0.0210
     22 C         138.2858  142.2674  164.7701 C.ar    1  UNL1       -0.0040
     23 C         138.5338  140.8319  165.1275 C.ar    1  UNL1        0.0059
     24 C         138.4198  139.7670  164.0772 C.ar    1  UNL1        0.0751
     25 C         138.0580  140.1377  162.6695 C.ar    1  UNL1        0.0272
     26 C         137.8100  141.5732  162.3121 C.ar    1  UNL1       -0.0047
     27 C         138.0197  138.8793  161.8541 C.3     1  UNL1        0.2356
     28 O         138.3580  137.7309  162.7578 O.3     1  UNL1       -0.4404
     29 C         138.6053  138.2795  164.1318 C.2     1  UNL1        0.3413
     30 O         138.9733  137.4809  165.3470 O.2     1  UNL1       -0.2449
@<TRIPOS>BOND
     1     9    10    2
     2    10    11    1
     3    11    12    1
     4    12    13    1
     5    13    14   ar
     6    14    15   ar
     7    15     8    1
     8     8     7    1
     9     7     1    1
    10     1     2    1
    11     2     3    1
    12     3     4    1
    13     4    19    1
    14    19    20    1
    15    20    21    1
    16    21    22   ar
    17    22    23   ar
    18    23    24   ar
    19    24    25   ar
    20    25    26   ar
    21    25    27    1
    22    27    28    1
    23    28    29    1
    24    29    30    2
    25     4     5    1
    26     5     6    1
    27    15    16   ar
    28    16    17   ar
    29    17    18   ar
    30    18    10    1
    31    18    13   ar
    32     6     1    1
    33    26    21   ar
    34    29    24    1
