@<TRIPOS>MOLECULE
*****
 35 38 0 0 0
SMALL
GASTEIGER

@<TRIPOS>ATOM
      1 S         141.6800  140.0730  164.4739 S.O2    1  UNL1        0.0634
      2 O         140.7494  140.9257  163.6634 O.2     1  UNL1       -0.1528
      3 O         142.6106  139.2204  165.2844 O.2     1  UNL1       -0.1528
      4 C         140.5072  139.4812  165.1979 C.ar    1  UNL1        0.1254
      5 C         139.5997  138.5167  164.4934 C.ar    1  UNL1        0.0232
      6 C         138.4269  137.9249  165.2174 C.ar    1  UNL1        0.0412
      7 C         138.1615  138.2976  166.6459 C.ar    1  UNL1        0.1684
      8 O         136.9887  137.7058  167.3700 O.3     1  UNL1       -0.5028
      9 C         139.0689  139.2620  167.3505 C.ar    1  UNL1        0.1800
     10 C         140.2418  139.8539  166.6265 C.ar    1  UNL1        0.0605
     11 H         136.4218  137.1033  166.9299 H       1  UNL1        0.2923
     12 O         138.8035  139.6346  168.7790 O.3     1  UNL1       -0.4504
     13 C         139.7771  140.5014  169.5213 C.ar    1  UNL1        0.1463
     14 C         140.8549  139.8745  170.3553 C.ar    1  UNL1        0.0375
     15 C         141.8284  140.7412  171.0975 C.ar    1  UNL1        0.0040
     16 C         141.7242  142.2347  171.0059 C.ar    1  UNL1        0.0116
     17 C         140.6465  142.8616  170.1719 C.ar    1  UNL1        0.0607
     18 CL        140.5423  144.3552  170.0803 Cl      1  UNL1       -0.0821
     19 C         139.6729  141.9949  169.4296 C.ar    1  UNL1        0.0489
     20 C         143.8846  141.6879  161.5961 C.3     1  UNL1        0.1076
     21 C         145.1985  141.8484  162.3018 C.3     1  UNL1        0.0257
     22 C         145.3395  141.4172  163.7315 C.3     1  UNL1        0.0211
     23 C         144.1667  140.8254  164.4556 C.3     1  UNL1        0.0959
     24 N         142.8528  140.6648  163.7499 N.3     1  UNL1       -0.1536
     25 C         142.7118  141.0961  162.3201 C.3     1  UNL1        0.1184
     26 C         144.5155  140.7389  156.5265 C.3     1  UNL1        0.0376
     27 C         144.0591  141.6446  157.6316 C.ar    1  UNL1        0.0514
     28 C         144.2000  141.2134  159.0613 C.ar    1  UNL1        0.0801
     29 N         143.7436  142.1192  160.1664 N.ar    1  UNL1       -0.2806
     30 C         143.1462  143.4562  159.8417 C.ar    1  UNL1        0.3305
     31 O         142.6897  144.3620  160.9468 O.2     1  UNL1       -0.2464
     32 N         143.0052  143.8874  158.4120 N.ar    1  UNL1       -0.2746
     33 C         143.4616  142.9817  157.3069 C.ar    1  UNL1        0.2584
     34 O         143.3206  143.4130  155.8772 O.2     1  UNL1       -0.2674
     35 H         142.6131  144.7650  158.1989 H       1  UNL1        0.1734
@<TRIPOS>BOND
     1    26    27    1
     2    27    28   ar
     3    28    29   ar
     4    20    29    1
     5    20    21    1
     6    21    22    1
     7    22    23    1
     8    23    24    1
     9    24     1    1
    10     1     2    2
    11     1     3    2
    12     1     4    1
    13     4     5   ar
    14     5     6   ar
    15     6     7   ar
    16     7     8    1
    17     7     9   ar
    18     9    12    1
    19    12    13    1
    20    13    14   ar
    21    14    15   ar
    22    15    16   ar
    23    16    17   ar
    24    17    18    1
    25    17    19   ar
    26     9    10   ar
    27    24    25    1
    28    29    30   ar
    29    30    31    2
    30    30    32   ar
    31    32    33   ar
    32    33    34    2
    33    33    27   ar
    34    25    20    1
    35    10     4   ar
    36    19    13   ar
    37     8    11    1
    38    32    35    1
@<TRIPOS>MOLECULE
*****
 35 38 0 0 0
SMALL
GASTEIGER

@<TRIPOS>ATOM
      1 S         140.8386  139.1125  162.2949 S.O2    1  UNL1        0.0634
      2 O         140.2599  137.8006  161.8546 O.2     1  UNL1       -0.1528
      3 O         141.4174  140.4245  162.7351 O.2     1  UNL1       -0.1528
      4 C         140.1131  138.9939  163.6023 C.ar    1  UNL1        0.1254
      5 C         139.2746  137.7833  163.8876 C.ar    1  UNL1        0.0232
      6 C         138.5490  137.6646  165.1951 C.ar    1  UNL1        0.0412
      7 C         138.6619  138.7566  166.2172 C.ar    1  UNL1        0.1684
      8 O         137.9364  138.6380  167.5247 O.3     1  UNL1       -0.5028
      9 C         139.5004  139.9672  165.9320 C.ar    1  UNL1        0.1800
     10 C         140.2260  140.0859  164.6245 C.ar    1  UNL1        0.0605
     11 H         137.4126  137.8817  167.7029 H       1  UNL1        0.2923
     12 O         139.6133  141.0591  166.9542 O.3     1  UNL1       -0.4504
     13 C         140.7830  141.0898  167.8929 C.ar    1  UNL1        0.1463
     14 C         141.5178  142.3750  168.1337 C.ar    1  UNL1        0.0375
     15 C         142.6874  142.4057  169.0724 C.ar    1  UNL1        0.0040
     16 C         143.1221  141.1511  169.7701 C.ar    1  UNL1        0.0116
     17 C         142.3873  139.8658  169.5292 C.ar    1  UNL1        0.0607
     18 CL        142.8221  138.6111  170.2270 Cl      1  UNL1       -0.0821
     19 C         141.2177  139.8351  168.5906 C.ar    1  UNL1        0.0489
     20 C         142.0300  138.3576  158.5853 C.3     1  UNL1        0.1076
     21 C         143.0153  139.4684  158.3724 C.3     1  UNL1        0.0257
     22 C         143.2750  140.4606  159.4670 C.3     1  UNL1        0.0211
     23 C         142.5495  140.3420  160.7745 C.3     1  UNL1        0.0959
     24 N         141.5642  139.2312  160.9874 N.3     1  UNL1       -0.1536
     25 C         141.3044  138.2390  159.8928 C.3     1  UNL1        0.1184
     26 C         143.6651  134.4581  155.5654 C.3     1  UNL1        0.0376
     27 C         142.5878  135.4157  155.9807 C.ar    1  UNL1        0.0514
     28 C         142.8475  136.4078  157.0753 C.ar    1  UNL1        0.0801
     29 N         141.7703  137.3654  157.4907 N.ar    1  UNL1       -0.2806
     30 C         140.4333  137.3309  156.8115 C.ar    1  UNL1        0.3305
     31 O         139.3561  138.2885  157.2268 O.2     1  UNL1       -0.2464
     32 N         140.1736  136.3387  155.7169 N.ar    1  UNL1       -0.2746
     33 C         141.2509  135.3811  155.3015 C.ar    1  UNL1        0.2584
     34 O         140.9912  134.3889  154.2069 O.2     1  UNL1       -0.2674
     35 H         139.2962  136.3160  155.2711 H       1  UNL1        0.1734
@<TRIPOS>BOND
     1    26    27    1
     2    27    28   ar
     3    28    29   ar
     4    20    29    1
     5    20    21    1
     6    21    22    1
     7    22    23    1
     8    23    24    1
     9    24     1    1
    10     1     2    2
    11     1     3    2
    12     1     4    1
    13     4     5   ar
    14     5     6   ar
    15     6     7   ar
    16     7     8    1
    17     7     9   ar
    18     9    12    1
    19    12    13    1
    20    13    14   ar
    21    14    15   ar
    22    15    16   ar
    23    16    17   ar
    24    17    18    1
    25    17    19   ar
    26     9    10   ar
    27    24    25    1
    28    29    30   ar
    29    30    31    2
    30    30    32   ar
    31    32    33   ar
    32    33    34    2
    33    33    27   ar
    34    25    20    1
    35    10     4   ar
    36    19    13   ar
    37     8    11    1
    38    32    35    1
@<TRIPOS>MOLECULE
*****
 35 38 0 0 0
SMALL
GASTEIGER

@<TRIPOS>ATOM
      1 S         139.4806  139.1105  158.3544 S.O2    1  UNL1        0.0634
      2 O         140.5737  138.4195  159.1144 O.2     1  UNL1       -0.1528
      3 O         138.3875  139.8015  157.5945 O.2     1  UNL1       -0.1528
      4 C         138.8563  139.5449  159.6473 C.ar    1  UNL1        0.1254
      5 C         138.4941  138.5245  160.6854 C.ar    1  UNL1        0.0232
      6 C         137.8698  138.9588  161.9783 C.ar    1  UNL1        0.0412
      7 C         137.6077  140.4136  162.2331 C.ar    1  UNL1        0.1684
      8 O         136.9834  140.8480  163.5260 O.3     1  UNL1       -0.5028
      9 C         137.9699  141.4340  161.1951 C.ar    1  UNL1        0.1800
     10 C         138.5943  140.9997  159.9021 C.ar    1  UNL1        0.0605
     11 H         136.7572  140.2106  164.1744 H       1  UNL1        0.2923
     12 O         137.7079  142.8888  161.4499 O.3     1  UNL1       -0.4504
     13 C         138.4661  143.6105  162.5244 C.ar    1  UNL1        0.1463
     14 C         137.7796  143.9850  163.8044 C.ar    1  UNL1        0.0375
     15 C         138.5378  144.7067  164.8787 C.ar    1  UNL1        0.0040
     16 C         139.9824  145.0538  164.6731 C.ar    1  UNL1        0.0116
     17 C         140.6690  144.6793  163.3931 C.ar    1  UNL1        0.0607
     18 CL        142.1137  145.0265  163.1875 Cl      1  UNL1       -0.0821
     19 C         139.9108  143.9576  162.3187 C.ar    1  UNL1        0.0489
     20 C         141.4243  136.9155  155.6798 C.3     1  UNL1        0.1076
     21 C         141.3535  137.8073  154.4758 C.3     1  UNL1        0.0257
     22 C         140.6584  139.1335  154.5647 C.3     1  UNL1        0.0211
     23 C         140.0341  139.5680  155.8576 C.3     1  UNL1        0.0959
     24 N         140.1049  138.6761  157.0616 N.3     1  UNL1       -0.1536
     25 C         140.8001  137.3499  156.9727 C.3     1  UNL1        0.1184
     26 C         141.2263  131.7676  155.0016 C.3     1  UNL1        0.0376
     27 C         142.0204  133.0153  155.2518 C.ar    1  UNL1        0.0514
     28 C         141.3254  134.3415  155.3407 C.ar    1  UNL1        0.0801
     29 N         142.1195  135.5892  155.5909 N.ar    1  UNL1       -0.2806
     30 C         143.6087  135.5107  155.7522 C.ar    1  UNL1        0.3305
     31 O         144.4028  136.7584  156.0023 O.2     1  UNL1       -0.2464
     32 N         144.3038  134.1844  155.6632 N.ar    1  UNL1       -0.2746
     33 C         143.5096  132.9367  155.4131 C.ar    1  UNL1        0.2584
     34 O         144.2048  131.6105  155.3241 O.2     1  UNL1       -0.2674
     35 H         145.2812  134.1329  155.7691 H       1  UNL1        0.1734
@<TRIPOS>BOND
     1    26    27    1
     2    27    28   ar
     3    28    29   ar
     4    20    29    1
     5    20    21    1
     6    21    22    1
     7    22    23    1
     8    23    24    1
     9    24     1    1
    10     1     2    2
    11     1     3    2
    12     1     4    1
    13     4     5   ar
    14     5     6   ar
    15     6     7   ar
    16     7     8    1
    17     7     9   ar
    18     9    12    1
    19    12    13    1
    20    13    14   ar
    21    14    15   ar
    22    15    16   ar
    23    16    17   ar
    24    17    18    1
    25    17    19   ar
    26     9    10   ar
    27    24    25    1
    28    29    30   ar
    29    30    31    2
    30    30    32   ar
    31    32    33   ar
    32    33    34    2
    33    33    27   ar
    34    25    20    1
    35    10     4   ar
    36    19    13   ar
    37     8    11    1
    38    32    35    1
@<TRIPOS>MOLECULE
*****
 35 38 0 0 0
SMALL
GASTEIGER

@<TRIPOS>ATOM
      1 S         141.1290  144.7150  160.1159 S.O2    1  UNL1        0.0634
      2 O         142.4994  144.1089  160.0481 O.2     1  UNL1       -0.1528
      3 O         139.7586  145.3210  160.1837 O.2     1  UNL1       -0.1528
      4 C         141.1740  144.9819  158.6406 C.ar    1  UNL1        0.1254
      5 C         142.3600  144.5415  157.8345 C.ar    1  UNL1        0.0232
      6 C         142.4050  144.8085  156.3592 C.ar    1  UNL1        0.0412
      7 C         141.2642  145.5159  155.6898 C.ar    1  UNL1        0.1684
      8 O         141.3092  145.7828  154.2145 O.3     1  UNL1       -0.5028
      9 C         140.0783  145.9563  156.4958 C.ar    1  UNL1        0.1800
     10 C         140.0332  145.6893  157.9712 C.ar    1  UNL1        0.0605
     11 H         142.0500  145.5077  153.7110 H       1  UNL1        0.2923
     12 O         138.9374  146.6637  155.8264 O.3     1  UNL1       -0.4504
     13 C         138.9157  148.1624  155.7665 C.ar    1  UNL1        0.1463
     14 C         138.4485  148.9536  156.9521 C.ar    1  UNL1        0.0375
     15 C         138.4267  150.4522  156.8923 C.ar    1  UNL1        0.0040
     16 C         138.8723  151.1596  155.6469 C.ar    1  UNL1        0.0116
     17 C         139.3395  150.3684  154.4613 C.ar    1  UNL1        0.0607
     18 CL        139.7850  151.0759  153.2159 Cl      1  UNL1       -0.0821
     19 C         139.3612  148.8698  154.5211 C.ar    1  UNL1        0.0489
     20 C         140.4745  142.8888  163.5780 C.3     1  UNL1        0.1076
     21 C         140.9938  143.9140  164.5420 C.3     1  UNL1        0.0257
     22 C         141.5582  145.2063  164.0306 C.3     1  UNL1        0.0211
     23 C         141.6032  145.4733  162.5551 C.3     1  UNL1        0.0959
     24 N         141.0839  144.4480  161.5912 N.3     1  UNL1       -0.1536
     25 C         140.5195  143.1557  162.1027 C.3     1  UNL1        0.1184
     26 C         141.1102  137.8907  164.8491 C.3     1  UNL1        0.0376
     27 C         140.2280  139.0975  164.7250 C.ar    1  UNL1        0.0514
     28 C         140.7923  140.3897  164.2136 C.ar    1  UNL1        0.0801
     29 N         139.9101  141.5965  164.0895 N.ar    1  UNL1       -0.2806
     30 C         138.4635  141.5110  164.4769 C.ar    1  UNL1        0.3305
     31 O         137.5813  142.7178  164.3529 O.2     1  UNL1       -0.2464
     32 N         137.8992  140.2188  164.9884 N.ar    1  UNL1       -0.2746
     33 C         138.7815  139.0120  165.1124 C.ar    1  UNL1        0.2584
     34 O         138.2171  137.7197  165.6239 O.2     1  UNL1       -0.2674
     35 H         136.9498  140.1627  165.2427 H       1  UNL1        0.1734
@<TRIPOS>BOND
     1    26    27    1
     2    27    28   ar
     3    28    29   ar
     4    20    29    1
     5    20    21    1
     6    21    22    1
     7    22    23    1
     8    23    24    1
     9    24     1    1
    10     1     2    2
    11     1     3    2
    12     1     4    1
    13     4     5   ar
    14     5     6   ar
    15     6     7   ar
    16     7     8    1
    17     7     9   ar
    18     9    12    1
    19    12    13    1
    20    13    14   ar
    21    14    15   ar
    22    15    16   ar
    23    16    17   ar
    24    17    18    1
    25    17    19   ar
    26     9    10   ar
    27    24    25    1
    28    29    30   ar
    29    30    31    2
    30    30    32   ar
    31    32    33   ar
    32    33    34    2
    33    33    27   ar
    34    25    20    1
    35    10     4   ar
    36    19    13   ar
    37     8    11    1
    38    32    35    1
@<TRIPOS>MOLECULE
*****
 35 38 0 0 0
SMALL
GASTEIGER

@<TRIPOS>ATOM
      1 S         140.5626  138.9307  158.8526 S.O2    1  UNL1        0.0634
      2 O         141.6919  139.3744  159.7346 O.2     1  UNL1       -0.1528
      3 O         139.4334  138.4871  157.9706 O.2     1  UNL1       -0.1528
      4 C         139.5756  139.4682  159.8460 C.ar    1  UNL1        0.1254
      5 C         138.7611  138.5241  160.6799 C.ar    1  UNL1        0.0232
      6 C         137.7740  139.0615  161.6733 C.ar    1  UNL1        0.0412
      7 C         137.6014  140.5430  161.8328 C.ar    1  UNL1        0.1684
      8 O         136.6144  141.0804  162.8262 O.3     1  UNL1       -0.5028
      9 C         138.4159  141.4870  160.9990 C.ar    1  UNL1        0.1800
     10 C         139.4030  140.9496  160.0055 C.ar    1  UNL1        0.0605
     11 H         136.1056  140.4907  163.3471 H       1  UNL1        0.2923
     12 O         138.2433  142.9685  161.1585 O.3     1  UNL1       -0.4504
     13 C         138.7559  143.6550  162.3898 C.ar    1  UNL1        0.1463
     14 C         137.8242  143.9472  163.5285 C.ar    1  UNL1        0.0375
     15 C         138.3368  144.6336  164.7597 C.ar    1  UNL1        0.0040
     16 C         139.7810  145.0279  164.8523 C.ar    1  UNL1        0.0116
     17 C         140.7127  144.7358  163.7136 C.ar    1  UNL1        0.0607
     18 CL        142.1571  145.1301  163.8063 Cl      1  UNL1       -0.0821
     19 C         140.2002  144.0493  162.4824 C.ar    1  UNL1        0.0489
     20 C         142.7052  136.3744  156.7022 C.3     1  UNL1        0.1076
     21 C         143.5239  137.3184  155.8724 C.3     1  UNL1        0.0257
     22 C         143.3554  138.7999  156.0360 C.3     1  UNL1        0.0211
     23 C         142.3683  139.3374  157.0294 C.3     1  UNL1        0.0959
     24 N         141.5497  138.3933  157.8592 N.3     1  UNL1       -0.1536
     25 C         141.7182  136.9118  157.6956 C.3     1  UNL1        0.1184
     26 C         145.1709  131.9645  157.9162 C.3     1  UNL1        0.0376
     27 C         144.1065  132.6879  157.1456 C.ar    1  UNL1        0.0514
     28 C         143.9380  134.1694  157.3092 C.ar    1  UNL1        0.0801
     29 N         142.8737  134.8928  156.5386 N.ar    1  UNL1       -0.2806
     30 C         141.9778  134.1348  155.6044 C.ar    1  UNL1        0.3305
     31 O         140.9134  134.8582  154.8338 O.2     1  UNL1       -0.2464
     32 N         142.1463  132.6533  155.4408 N.ar    1  UNL1       -0.2746
     33 C         143.2106  131.9299  156.2114 C.ar    1  UNL1        0.2584
     34 O         143.3791  130.4483  156.0478 O.2     1  UNL1       -0.2674
     35 H         141.5583  132.1557  154.8277 H       1  UNL1        0.1734
@<TRIPOS>BOND
     1    26    27    1
     2    27    28   ar
     3    28    29   ar
     4    20    29    1
     5    20    21    1
     6    21    22    1
     7    22    23    1
     8    23    24    1
     9    24     1    1
    10     1     2    2
    11     1     3    2
    12     1     4    1
    13     4     5   ar
    14     5     6   ar
    15     6     7   ar
    16     7     8    1
    17     7     9   ar
    18     9    12    1
    19    12    13    1
    20    13    14   ar
    21    14    15   ar
    22    15    16   ar
    23    16    17   ar
    24    17    18    1
    25    17    19   ar
    26     9    10   ar
    27    24    25    1
    28    29    30   ar
    29    30    31    2
    30    30    32   ar
    31    32    33   ar
    32    33    34    2
    33    33    27   ar
    34    25    20    1
    35    10     4   ar
    36    19    13   ar
    37     8    11    1
    38    32    35    1
@<TRIPOS>MOLECULE
*****
 35 38 0 0 0
SMALL
GASTEIGER

@<TRIPOS>ATOM
      1 S         143.2314  139.5723  160.1287 S.O2    1  UNL1        0.0634
      2 O         144.3687  138.6516  160.4589 O.2     1  UNL1       -0.1528
      3 O         142.0942  140.4929  159.7985 O.2     1  UNL1       -0.1528
      4 C         143.1578  139.9965  161.5655 C.ar    1  UNL1        0.1254
      5 C         144.4140  140.3295  162.3146 C.ar    1  UNL1        0.0232
      6 C         144.3403  140.7538  163.7514 C.ar    1  UNL1        0.0412
      7 C         143.0104  140.8451  164.4392 C.ar    1  UNL1        0.1684
      8 O         142.9368  141.2694  165.8761 O.3     1  UNL1       -0.5028
      9 C         141.7542  140.5122  163.6902 C.ar    1  UNL1        0.1800
     10 C         141.8279  140.0879  162.2533 C.ar    1  UNL1        0.0605
     11 H         143.7215  141.4774  166.3440 H       1  UNL1        0.2923
     12 O         140.4244  140.6036  164.3780 O.3     1  UNL1       -0.4504
     13 C         139.5240  141.7748  164.1173 C.ar    1  UNL1        0.1463
     14 C         138.7024  141.8245  162.8633 C.ar    1  UNL1        0.0375
     15 C         137.8021  142.9956  162.6026 C.ar    1  UNL1        0.0040
     16 C         137.7235  144.1169  163.5958 C.ar    1  UNL1        0.0116
     17 C         138.5452  144.0671  164.8497 C.ar    1  UNL1        0.0607
     18 CL        138.4665  145.1885  165.8429 Cl      1  UNL1       -0.0821
     19 C         139.4454  142.8961  165.1105 C.ar    1  UNL1        0.0489
     20 C         142.9868  137.3297  156.8636 C.3     1  UNL1        0.1076
     21 C         143.4525  138.2993  155.8181 C.3     1  UNL1        0.0257
     22 C         143.8445  139.6933  156.2095 C.3     1  UNL1        0.0211
     23 C         143.7708  140.1176  157.6464 C.3     1  UNL1        0.0959
     24 N         143.3051  139.1480  158.6919 N.3     1  UNL1       -0.1536
     25 C         142.9131  137.7540  158.3004 C.3     1  UNL1        0.1184
     26 C         143.9580  132.2253  156.8244 C.3     1  UNL1        0.0376
     27 C         143.0804  133.3835  156.4525 C.ar    1  UNL1        0.0514
     28 C         143.4724  134.7774  156.8439 C.ar    1  UNL1        0.0801
     29 N         142.5948  135.9357  156.4721 N.ar    1  UNL1       -0.2806
     30 C         141.3252  135.7000  155.7088 C.ar    1  UNL1        0.3305
     31 O         140.4476  136.8583  155.3370 O.2     1  UNL1       -0.2464
     32 N         140.9332  134.3061  155.3174 N.ar    1  UNL1       -0.2746
     33 C         141.8108  133.1478  155.6893 C.ar    1  UNL1        0.2584
     34 O         141.4188  131.7538  155.2978 O.2     1  UNL1       -0.2674
     35 H         140.1000  134.1514  154.8164 H       1  UNL1        0.1734
@<TRIPOS>BOND
     1    26    27    1
     2    27    28   ar
     3    28    29   ar
     4    20    29    1
     5    20    21    1
     6    21    22    1
     7    22    23    1
     8    23    24    1
     9    24     1    1
    10     1     2    2
    11     1     3    2
    12     1     4    1
    13     4     5   ar
    14     5     6   ar
    15     6     7   ar
    16     7     8    1
    17     7     9   ar
    18     9    12    1
    19    12    13    1
    20    13    14   ar
    21    14    15   ar
    22    15    16   ar
    23    16    17   ar
    24    17    18    1
    25    17    19   ar
    26     9    10   ar
    27    24    25    1
    28    29    30   ar
    29    30    31    2
    30    30    32   ar
    31    32    33   ar
    32    33    34    2
    33    33    27   ar
    34    25    20    1
    35    10     4   ar
    36    19    13   ar
    37     8    11    1
    38    32    35    1
@<TRIPOS>MOLECULE
*****
 35 38 0 0 0
SMALL
GASTEIGER

@<TRIPOS>ATOM
      1 S         141.0761  138.4685  158.2222 S.O2    1  UNL1        0.0634
      2 O         142.1173  139.2875  158.9257 O.2     1  UNL1       -0.1528
      3 O         140.0348  137.6495  157.5188 O.2     1  UNL1       -0.1528
      4 C         140.0290  138.9961  159.1578 C.ar    1  UNL1        0.1254
      5 C         139.2468  140.2230  158.7930 C.ar    1  UNL1        0.0232
      6 C         138.1998  140.7506  159.7286 C.ar    1  UNL1        0.0412
      7 C         137.9349  140.0514  161.0290 C.ar    1  UNL1        0.1684
      8 O         136.8879  140.5790  161.9645 O.3     1  UNL1       -0.5028
      9 C         138.7171  138.8246  161.3938 C.ar    1  UNL1        0.1800
     10 C         139.7642  138.2969  160.4582 C.ar    1  UNL1        0.0605
     11 H         136.3993  141.3453  161.7366 H       1  UNL1        0.2923
     12 O         138.4523  138.1254  162.6942 O.3     1  UNL1       -0.4504
     13 C         139.1340  138.5890  163.9474 C.ar    1  UNL1        0.1463
     14 C         138.3642  139.3595  164.9788 C.ar    1  UNL1        0.0375
     15 C         139.0458  139.8231  166.2319 C.ar    1  UNL1        0.0040
     16 C         140.4972  139.5161  166.4537 C.ar    1  UNL1        0.0116
     17 C         141.2670  138.7456  165.4223 C.ar    1  UNL1        0.0607
     18 CL        142.7184  138.4387  165.6441 Cl      1  UNL1       -0.0821
     19 C         140.5853  138.2821  164.1691 C.ar    1  UNL1        0.0489
     20 C         143.3334  135.9337  156.1657 C.3     1  UNL1        0.1076
     21 C         144.2172  136.8856  155.4155 C.3     1  UNL1        0.0257
     22 C         144.0539  138.3651  155.6008 C.3     1  UNL1        0.0211
     23 C         143.0069  138.8928  156.5365 C.3     1  UNL1        0.0959
     24 N         142.1231  137.9409  157.2867 N.3     1  UNL1       -0.1536
     25 C         142.2864  136.4613  157.1013 C.3     1  UNL1        0.1184
     26 C         144.9668  131.3298  157.9367 C.3     1  UNL1        0.0376
     27 C         144.3134  132.1522  156.8658 C.ar    1  UNL1        0.0514
     28 C         144.1501  133.6317  157.0512 C.ar    1  UNL1        0.0801
     29 N         143.4967  134.4541  155.9803 N.ar    1  UNL1       -0.2806
     30 C         143.0066  133.7971  154.7242 C.ar    1  UNL1        0.3305
     31 O         142.3532  134.6195  153.6533 O.2     1  UNL1       -0.2464
     32 N         143.1699  132.3176  154.5388 N.ar    1  UNL1       -0.2746
     33 C         143.8233  131.4952  155.6097 C.ar    1  UNL1        0.2584
     34 O         143.9866  130.0156  155.4243 O.2     1  UNL1       -0.2674
     35 H         142.8482  131.8863  153.7144 H       1  UNL1        0.1734
@<TRIPOS>BOND
     1    26    27    1
     2    27    28   ar
     3    28    29   ar
     4    20    29    1
     5    20    21    1
     6    21    22    1
     7    22    23    1
     8    23    24    1
     9    24     1    1
    10     1     2    2
    11     1     3    2
    12     1     4    1
    13     4     5   ar
    14     5     6   ar
    15     6     7   ar
    16     7     8    1
    17     7     9   ar
    18     9    12    1
    19    12    13    1
    20    13    14   ar
    21    14    15   ar
    22    15    16   ar
    23    16    17   ar
    24    17    18    1
    25    17    19   ar
    26     9    10   ar
    27    24    25    1
    28    29    30   ar
    29    30    31    2
    30    30    32   ar
    31    32    33   ar
    32    33    34    2
    33    33    27   ar
    34    25    20    1
    35    10     4   ar
    36    19    13   ar
    37     8    11    1
    38    32    35    1
@<TRIPOS>MOLECULE
*****
 35 38 0 0 0
SMALL
GASTEIGER

@<TRIPOS>ATOM
      1 S         142.5334  139.4907  160.9133 S.O2    1  UNL1        0.0634
      2 O         143.8172  139.4207  160.1407 O.2     1  UNL1       -0.1528
      3 O         141.2497  139.5607  161.6859 O.2     1  UNL1       -0.1528
      4 C         141.8019  138.8840  159.7528 C.ar    1  UNL1        0.1254
      5 C         140.3076  138.9869  159.6715 C.ar    1  UNL1        0.0232
      6 C         139.5760  138.3802  158.5111 C.ar    1  UNL1        0.0412
      7 C         140.3387  137.6705  157.4319 C.ar    1  UNL1        0.1684
      8 O         139.6072  137.0638  156.2714 O.3     1  UNL1       -0.5028
      9 C         141.8329  137.5676  157.5132 C.ar    1  UNL1        0.1800
     10 C         142.5646  138.1743  158.6737 C.ar    1  UNL1        0.0605
     11 H         138.6738  137.1281  156.2206 H       1  UNL1        0.2923
     12 O         142.5956  136.8579  156.4340 O.3     1  UNL1       -0.4504
     13 C         142.7156  135.3629  156.4595 C.ar    1  UNL1        0.1463
     14 C         141.7611  134.5202  155.6664 C.ar    1  UNL1        0.0375
     15 C         141.8810  133.0253  155.6919 C.ar    1  UNL1        0.0040
     16 C         142.9555  132.3730  156.5104 C.ar    1  UNL1        0.0116
     17 C         143.9100  133.2156  157.3034 C.ar    1  UNL1        0.0607
     18 CL        144.9845  132.5632  158.1219 Cl      1  UNL1       -0.0821
     19 C         143.7901  134.7105  157.2779 C.ar    1  UNL1        0.0489
     20 C         143.4472  140.5644  164.6231 C.3     1  UNL1        0.1076
     21 C         144.7280  141.3109  164.3948 C.3     1  UNL1        0.0257
     22 C         145.2773  141.4507  163.0060 C.3     1  UNL1        0.0211
     23 C         144.5458  140.8439  161.8455 C.3     1  UNL1        0.0959
     24 N         143.2649  140.0974  162.0738 N.3     1  UNL1       -0.1536
     25 C         142.7156  139.9576  163.4626 C.3     1  UNL1        0.1184
     26 C         140.6450  142.4619  168.5660 C.3     1  UNL1        0.0376
     27 C         141.4967  141.3734  167.9833 C.ar    1  UNL1        0.0514
     28 C         142.0461  141.5131  166.5946 C.ar    1  UNL1        0.0801
     29 N         142.8978  140.4246  166.0119 N.ar    1  UNL1       -0.2806
     30 C         143.2003  139.1963  166.8180 C.ar    1  UNL1        0.3305
     31 O         144.0521  138.1077  166.2353 O.2     1  UNL1       -0.2464
     32 N         142.6510  139.0566  168.2067 N.ar    1  UNL1       -0.2746
     33 C         141.7992  140.1451  168.7894 C.ar    1  UNL1        0.2584
     34 O         141.2499  140.0053  170.1782 O.2     1  UNL1       -0.2674
     35 H         142.8495  138.2504  168.7358 H       1  UNL1        0.1734
@<TRIPOS>BOND
     1    26    27    1
     2    27    28   ar
     3    28    29   ar
     4    20    29    1
     5    20    21    1
     6    21    22    1
     7    22    23    1
     8    23    24    1
     9    24     1    1
    10     1     2    2
    11     1     3    2
    12     1     4    1
    13     4     5   ar
    14     5     6   ar
    15     6     7   ar
    16     7     8    1
    17     7     9   ar
    18     9    12    1
    19    12    13    1
    20    13    14   ar
    21    14    15   ar
    22    15    16   ar
    23    16    17   ar
    24    17    18    1
    25    17    19   ar
    26     9    10   ar
    27    24    25    1
    28    29    30   ar
    29    30    31    2
    30    30    32   ar
    31    32    33   ar
    32    33    34    2
    33    33    27   ar
    34    25    20    1
    35    10     4   ar
    36    19    13   ar
    37     8    11    1
    38    32    35    1
@<TRIPOS>MOLECULE
*****
 35 38 0 0 0
SMALL
GASTEIGER

@<TRIPOS>ATOM
      1 S         140.7653  138.7461  163.4345 S.O2    1  UNL1        0.0634
      2 O         141.1137  137.3453  163.8422 O.2     1  UNL1       -0.1528
      3 O         140.4168  140.1469  163.0268 O.2     1  UNL1       -0.1528
      4 C         141.3686  138.5028  162.0830 C.ar    1  UNL1        0.1254
      5 C         142.8002  138.0698  161.9676 C.ar    1  UNL1        0.0232
      6 C         143.4036  137.8265  160.6161 C.ar    1  UNL1        0.0412
      7 C         142.5754  138.0162  159.3798 C.ar    1  UNL1        0.1684
      8 O         143.1788  137.7728  158.0283 O.3     1  UNL1       -0.5028
      9 C         141.1439  138.4491  159.4952 C.ar    1  UNL1        0.1800
     10 C         140.5405  138.6925  160.8467 C.ar    1  UNL1        0.0605
     11 H         144.0730  137.5024  157.9562 H       1  UNL1        0.2923
     12 O         140.3158  138.6387  158.2589 O.3     1  UNL1       -0.4504
     13 C         140.1033  140.0154  157.7024 C.ar    1  UNL1        0.1463
     14 C         138.9589  140.2787  156.7691 C.ar    1  UNL1        0.0375
     15 C         138.7464  141.6553  156.2126 C.ar    1  UNL1        0.0040
     16 C         139.6783  142.7687  156.5894 C.ar    1  UNL1        0.0116
     17 C         140.8227  142.5054  157.5227 C.ar    1  UNL1        0.0607
     18 CL        141.7546  143.6188  157.8995 Cl      1  UNL1       -0.0821
     19 C         141.0352  141.1288  158.0792 C.ar    1  UNL1        0.0489
     20 C         140.2701  140.1028  167.1310 C.3     1  UNL1        0.1076
     21 C         138.9552  139.4761  167.4892 C.3     1  UNL1        0.0257
     22 C         138.2436  138.6062  166.4959 C.3     1  UNL1        0.0211
     23 C         138.8470  138.3628  165.1442 C.3     1  UNL1        0.0959
     24 N         140.1619  138.9895  164.7860 N.3     1  UNL1       -0.1536
     25 C         140.8735  139.8595  165.7795 C.3     1  UNL1        0.1184
     26 C         140.4284  144.3982  170.0508 C.3     1  UNL1        0.0376
     27 C         141.0608  143.1205  169.5843 C.ar    1  UNL1        0.0514
     28 C         140.3493  142.2505  168.5909 C.ar    1  UNL1        0.0801
     29 N         140.9817  140.9728  168.1245 N.ar    1  UNL1       -0.2806
     30 C         142.3256  140.5651  168.6514 C.ar    1  UNL1        0.3305
     31 O         142.9580  139.2874  168.1849 O.2     1  UNL1       -0.2464
     32 N         143.0371  141.4351  169.6448 N.ar    1  UNL1       -0.2746
     33 C         142.4047  142.7128  170.1112 C.ar    1  UNL1        0.2584
     34 O         143.1162  143.5828  171.1047 O.2     1  UNL1       -0.2674
     35 H         143.9191  141.1675  169.9906 H       1  UNL1        0.1734
@<TRIPOS>BOND
     1    26    27    1
     2    27    28   ar
     3    28    29   ar
     4    20    29    1
     5    20    21    1
     6    21    22    1
     7    22    23    1
     8    23    24    1
     9    24     1    1
    10     1     2    2
    11     1     3    2
    12     1     4    1
    13     4     5   ar
    14     5     6   ar
    15     6     7   ar
    16     7     8    1
    17     7     9   ar
    18     9    12    1
    19    12    13    1
    20    13    14   ar
    21    14    15   ar
    22    15    16   ar
    23    16    17   ar
    24    17    18    1
    25    17    19   ar
    26     9    10   ar
    27    24    25    1
    28    29    30   ar
    29    30    31    2
    30    30    32   ar
    31    32    33   ar
    32    33    34    2
    33    33    27   ar
    34    25    20    1
    35    10     4   ar
    36    19    13   ar
    37     8    11    1
    38    32    35    1
