@<TRIPOS>MOLECULE
*****
 32 35 0 0 0
SMALL
GASTEIGER

@<TRIPOS>ATOM
      1 C         139.9510  140.6195  168.2044 C.ar    1  UNL1        0.0327
      2 C         139.9273  140.5736  166.7053 C.ar    1  UNL1        0.0044
      3 C         138.8994  139.7424  165.9966 C.ar    1  UNL1        0.0193
      4 C         137.8950  138.9571  166.7869 C.ar    1  UNL1        0.1002
      5 N         137.9187  139.0031  168.2859 N.ar    1  UNL1       -0.2296
      6 C         138.9467  139.8343  168.9947 C.ar    1  UNL1        0.1254
      7 N         138.9703  139.8802  170.4939 N.pl3   1  UNL1       -0.3426
      8 H         138.3111  139.3648  171.0126 H       1  UNL1        0.1437
      9 H         139.6450  140.4257  170.9591 H       1  UNL1        0.1437
     10 C         143.0349  143.1132  170.3307 C.ar    1  UNL1        0.2250
     11 C         143.4241  141.8001  169.7188 C.ar    1  UNL1        0.0577
     12 C         142.3961  140.9689  169.0101 C.ar    1  UNL1        0.0064
     13 C         140.9790  141.4508  168.9132 C.ar    1  UNL1        0.0221
     14 C         140.5898  142.7638  169.5250 C.ar    1  UNL1        0.1021
     15 N         141.6178  143.5950  170.2337 N.ar    1  UNL1       -0.2101
     16 C         145.5168  143.7820  170.7084 C.3     1  UNL1        0.2542
     17 O         144.0629  143.9444  171.0394 O.3     1  UNL1       -0.4561
     18 C         138.8757  139.6965  164.4974 C.ar    1  UNL1        0.0016
     19 C         138.8557  138.3751  163.7877 C.ar    1  UNL1        0.0014
     20 C         138.8321  138.3292  162.2886 C.ar    1  UNL1        0.0199
     21 C         138.8285  139.6047  161.4991 C.ar    1  UNL1        0.1222
     22 C         138.8485  140.9260  162.2089 C.ar    1  UNL1        0.0199
     23 C         138.8721  140.9719  163.7080 C.ar    1  UNL1        0.0014
     24 S         138.8049  139.5588  160.0001 S.O2    1  UNL1        0.0634
     25 O         138.1302  140.8981  159.9697 O.2     1  UNL1       -0.1528
     26 O         139.4796  138.2195  160.0304 O.2     1  UNL1       -0.1528
     27 N         138.7813  139.5129  158.5010 N.3     1  UNL1       -0.1504
     28 C         139.5778  138.4732  157.7698 C.3     1  UNL1        0.1279
     29 C         139.5542  138.4273  156.2707 C.3     1  UNL1        0.1613
     30 O         138.7341  139.4211  155.5027 O.3     1  UNL1       -0.3507
     31 C         137.9376  140.4608  156.2339 C.3     1  UNL1        0.1613
     32 C         137.9612  140.5067  157.7330 C.3     1  UNL1        0.1279
@<TRIPOS>BOND
     1    16    17    1
     2    17    10    1
     3    10    11   ar
     4    11    12   ar
     5    12    13   ar
     6    13     1    1
     7     1     2   ar
     8     2     3   ar
     9     3    18    1
    10    18    19   ar
    11    19    20   ar
    12    20    21   ar
    13    21    24    1
    14    24    25    2
    15    24    26    2
    16    24    27    1
    17    27    28    1
    18    28    29    1
    19    29    30    1
    20    30    31    1
    21    31    32    1
    22    21    22   ar
    23    22    23   ar
    24     3     4   ar
    25     4     5   ar
    26     5     6   ar
    27     6     7    1
    28    13    14   ar
    29    14    15   ar
    30    15    10   ar
    31     6     1   ar
    32    23    18   ar
    33    32    27    1
    34     7     8    1
    35     7     9    1
@<TRIPOS>MOLECULE
*****
 32 35 0 0 0
SMALL
GASTEIGER

@<TRIPOS>ATOM
      1 C         140.0303  140.3750  167.7808 C.ar    1  UNL1        0.0327
      2 C         140.3358  140.1609  166.3280 C.ar    1  UNL1        0.0044
      3 C         139.4616  139.2644  165.5020 C.ar    1  UNL1        0.0193
      4 C         138.2820  138.5821  166.1289 C.ar    1  UNL1        0.1002
      5 N         137.9766  138.7963  167.5817 N.ar    1  UNL1       -0.2296
      6 C         138.8508  139.6927  168.4077 C.ar    1  UNL1        0.1254
      7 N         138.5453  139.9069  169.8606 N.pl3   1  UNL1       -0.3426
      8 H         137.7711  139.4591  170.2721 H       1  UNL1        0.1437
      9 H         139.1190  140.4953  170.4027 H       1  UNL1        0.1437
     10 C         142.6528  143.0644  170.2587 C.ar    1  UNL1        0.2250
     11 C         141.2631  143.4978  169.8972 C.ar    1  UNL1        0.0577
     12 C         140.3889  142.6013  169.0712 C.ar    1  UNL1        0.0064
     13 C         140.9045  141.2715  168.6068 C.ar    1  UNL1        0.0221
     14 C         142.2943  140.8382  168.9683 C.ar    1  UNL1        0.1021
     15 N         143.1684  141.7346  169.7942 N.ar    1  UNL1       -0.2101
     16 C         145.0164  143.9233  170.9112 C.3     1  UNL1        0.2542
     17 O         143.5270  143.9609  171.0846 O.3     1  UNL1       -0.4561
     18 C         139.7671  139.0503  164.0491 C.ar    1  UNL1        0.0016
     19 C         138.6703  138.6656  163.1009 C.ar    1  UNL1        0.0014
     20 C         138.9758  138.4515  161.6479 C.ar    1  UNL1        0.0199
     21 C         140.3780  138.6220  161.1433 C.ar    1  UNL1        0.1222
     22 C         141.4748  139.0067  162.0916 C.ar    1  UNL1        0.0199
     23 C         141.1693  139.2209  163.5444 C.ar    1  UNL1        0.0014
     24 S         140.6835  138.4079  159.6905 S.O2    1  UNL1        0.0634
     25 O         139.2494  138.6839  159.3482 O.2     1  UNL1       -0.1528
     26 O         142.1176  138.1319  160.0327 O.2     1  UNL1       -0.1528
     27 N         140.9890  138.1938  158.2376 N.3     1  UNL1       -0.1504
     28 C         139.8740  137.9455  157.2654 C.3     1  UNL1        0.1279
     29 C         140.1795  137.7314  155.8126 C.3     1  UNL1        0.1613
     30 O         141.6000  137.7656  155.3319 O.3     1  UNL1       -0.3507
     31 C         142.7150  138.0138  156.3040 C.3     1  UNL1        0.1613
     32 C         142.4095  138.2279  157.7570 C.3     1  UNL1        0.1279
@<TRIPOS>BOND
     1    16    17    1
     2    17    10    1
     3    10    11   ar
     4    11    12   ar
     5    12    13   ar
     6    13     1    1
     7     1     2   ar
     8     2     3   ar
     9     3    18    1
    10    18    19   ar
    11    19    20   ar
    12    20    21   ar
    13    21    24    1
    14    24    25    2
    15    24    26    2
    16    24    27    1
    17    27    28    1
    18    28    29    1
    19    29    30    1
    20    30    31    1
    21    31    32    1
    22    21    22   ar
    23    22    23   ar
    24     3     4   ar
    25     4     5   ar
    26     5     6   ar
    27     6     7    1
    28    13    14   ar
    29    14    15   ar
    30    15    10   ar
    31     6     1   ar
    32    23    18   ar
    33    32    27    1
    34     7     8    1
    35     7     9    1
@<TRIPOS>MOLECULE
*****
 32 35 0 0 0
SMALL
GASTEIGER

@<TRIPOS>ATOM
      1 C         142.5078  143.5445  159.2180 C.ar    1  UNL1        0.0327
      2 C         142.1553  143.4201  160.6706 C.ar    1  UNL1        0.0044
      3 C         143.1355  142.8143  161.6310 C.ar    1  UNL1        0.0193
      4 C         144.4682  142.3331  161.1387 C.ar    1  UNL1        0.1002
      5 N         144.8206  142.4575  159.6860 N.ar    1  UNL1       -0.2296
      6 C         143.8404  143.0633  158.7257 C.ar    1  UNL1        0.1254
      7 N         144.1929  143.1877  157.2730 N.pl3   1  UNL1       -0.3426
      8 H         145.0676  142.8718  156.9499 H       1  UNL1        0.1437
      9 H         143.5496  143.5853  156.6426 H       1  UNL1        0.1437
     10 C         139.5672  145.3617  156.3369 C.ar    1  UNL1        0.2250
     11 C         140.5872  146.2284  157.0139 C.ar    1  UNL1        0.0577
     12 C         141.5674  145.6227  157.9742 C.ar    1  UNL1        0.0064
     13 C         141.5276  144.1503  158.2576 C.ar    1  UNL1        0.0221
     14 C         140.5075  143.2836  157.5807 C.ar    1  UNL1        0.1021
     15 N         139.5273  143.8893  156.6203 N.ar    1  UNL1       -0.2101
     16 C         137.4932  145.1250  154.7901 C.3     1  UNL1        0.2542
     17 O         138.5870  145.9675  155.3765 O.3     1  UNL1       -0.4561
     18 C         142.7830  142.6899  163.0837 C.ar    1  UNL1        0.0016
     19 C         141.3443  142.6699  163.5073 C.ar    1  UNL1        0.0014
     20 C         140.9917  142.5454  164.9600 C.ar    1  UNL1        0.0199
     21 C         142.0781  142.4410  165.9891 C.ar    1  UNL1        0.1222
     22 C         143.5169  142.4610  165.5654 C.ar    1  UNL1        0.0199
     23 C         143.8694  142.5855  164.1128 C.ar    1  UNL1        0.0014
     24 S         141.7257  142.3166  167.4418 S.O2    1  UNL1        0.0634
     25 O         143.1781  142.4163  167.8027 O.2     1  UNL1       -0.1528
     26 O         140.2732  142.2168  167.0808 O.2     1  UNL1       -0.1528
     27 N         141.3732  142.1921  168.8944 N.3     1  UNL1       -0.1504
     28 C         140.3035  143.0630  169.4840 C.3     1  UNL1        0.1279
     29 C         139.9511  142.9385  170.9366 C.3     1  UNL1        0.1613
     30 O         140.6683  141.9433  171.7998 O.3     1  UNL1       -0.3507
     31 C         141.7379  141.0724  171.2103 C.3     1  UNL1        0.1613
     32 C         142.0904  141.1968  169.7576 C.3     1  UNL1        0.1279
@<TRIPOS>BOND
     1    16    17    1
     2    17    10    1
     3    10    11   ar
     4    11    12   ar
     5    12    13   ar
     6    13     1    1
     7     1     2   ar
     8     2     3   ar
     9     3    18    1
    10    18    19   ar
    11    19    20   ar
    12    20    21   ar
    13    21    24    1
    14    24    25    2
    15    24    26    2
    16    24    27    1
    17    27    28    1
    18    28    29    1
    19    29    30    1
    20    30    31    1
    21    31    32    1
    22    21    22   ar
    23    22    23   ar
    24     3     4   ar
    25     4     5   ar
    26     5     6   ar
    27     6     7    1
    28    13    14   ar
    29    14    15   ar
    30    15    10   ar
    31     6     1   ar
    32    23    18   ar
    33    32    27    1
    34     7     8    1
    35     7     9    1
@<TRIPOS>MOLECULE
*****
 32 35 0 0 0
SMALL
GASTEIGER

@<TRIPOS>ATOM
      1 C         140.2038  143.3173  164.4490 C.ar    1  UNL1        0.0327
      2 C         141.1274  142.9655  163.3207 C.ar    1  UNL1        0.0044
      3 C         141.2393  143.8736  162.1321 C.ar    1  UNL1        0.0193
      4 C         140.4277  145.1335  162.0718 C.ar    1  UNL1        0.1002
      5 N         139.5041  145.4853  163.2001 N.ar    1  UNL1       -0.2296
      6 C         139.3922  144.5772  164.3887 C.ar    1  UNL1        0.1254
      7 N         138.4685  144.9291  165.5171 N.pl3   1  UNL1       -0.3426
      8 H         137.9358  145.7561  165.4775 H       1  UNL1        0.1437
      9 H         138.3951  144.3331  166.2972 H       1  UNL1        0.1437
     10 C         139.8681  140.5930  168.0149 C.ar    1  UNL1        0.2250
     11 C         140.6349  141.8777  168.1221 C.ar    1  UNL1        0.0577
     12 C         140.7468  142.7858  166.9335 C.ar    1  UNL1        0.0064
     13 C         140.0919  142.4092  165.6376 C.ar    1  UNL1        0.0221
     14 C         139.3251  141.1245  165.5304 C.ar    1  UNL1        0.1021
     15 N         139.2132  140.2164  166.7190 N.ar    1  UNL1       -0.2101
     16 C         140.3343  140.1022  170.5232 C.3     1  UNL1        0.2542
     17 O         139.7562  139.6849  169.2035 O.3     1  UNL1       -0.4561
     18 C         142.1630  143.5216  161.0037 C.ar    1  UNL1        0.0016
     19 C         141.7981  143.8846  159.5948 C.ar    1  UNL1        0.0014
     20 C         142.7217  143.5327  158.4664 C.ar    1  UNL1        0.0199
     21 C         144.0102  142.8178  158.7471 C.ar    1  UNL1        0.1222
     22 C         144.3751  142.4548  160.1561 C.ar    1  UNL1        0.0199
     23 C         143.4514  142.8068  161.2843 C.ar    1  UNL1        0.0014
     24 S         144.9338  142.4659  157.6188 S.O2    1  UNL1        0.0634
     25 O         143.7558  142.0772  156.7757 O.2     1  UNL1       -0.1528
     26 O         146.1119  142.8547  158.4619 O.2     1  UNL1       -0.1528
     27 N         145.8575  142.1140  156.4905 N.3     1  UNL1       -0.1504
     28 C         145.3238  141.4181  155.2736 C.3     1  UNL1        0.1279
     29 C         146.2474  141.0662  154.1453 C.3     1  UNL1        0.1613
     30 O         147.7047  141.4102  154.2339 O.3     1  UNL1       -0.3507
     31 C         148.2384  142.1061  155.4508 C.3     1  UNL1        0.1613
     32 C         147.3148  142.4581  156.5791 C.3     1  UNL1        0.1279
@<TRIPOS>BOND
     1    16    17    1
     2    17    10    1
     3    10    11   ar
     4    11    12   ar
     5    12    13   ar
     6    13     1    1
     7     1     2   ar
     8     2     3   ar
     9     3    18    1
    10    18    19   ar
    11    19    20   ar
    12    20    21   ar
    13    21    24    1
    14    24    25    2
    15    24    26    2
    16    24    27    1
    17    27    28    1
    18    28    29    1
    19    29    30    1
    20    30    31    1
    21    31    32    1
    22    21    22   ar
    23    22    23   ar
    24     3     4   ar
    25     4     5   ar
    26     5     6   ar
    27     6     7    1
    28    13    14   ar
    29    14    15   ar
    30    15    10   ar
    31     6     1   ar
    32    23    18   ar
    33    32    27    1
    34     7     8    1
    35     7     9    1
@<TRIPOS>MOLECULE
*****
 32 35 0 0 0
SMALL
GASTEIGER

@<TRIPOS>ATOM
      1 C         143.4809  141.0347  163.1391 C.ar    1  UNL1        0.0327
      2 C         142.3155  140.9891  162.1959 C.ar    1  UNL1        0.0044
      3 C         142.4433  141.5667  160.8175 C.ar    1  UNL1        0.0193
      4 C         143.7365  142.1898  160.3823 C.ar    1  UNL1        0.1002
      5 N         144.9018  142.2353  161.3256 N.ar    1  UNL1       -0.2296
      6 C         144.7741  141.6578  162.7040 C.ar    1  UNL1        0.1254
      7 N         145.9395  141.7033  163.6473 N.pl3   1  UNL1       -0.3426
      8 H         146.7883  142.1123  163.3616 H       1  UNL1        0.1437
      9 H         145.8557  141.3242  164.5520 H       1  UNL1        0.1437
     10 C         143.0975  139.3019  167.2744 C.ar    1  UNL1        0.2250
     11 C         143.5819  138.4437  166.1436 C.ar    1  UNL1        0.0577
     12 C         143.7097  139.0213  164.7652 C.ar    1  UNL1        0.0064
     13 C         143.3531  140.4571  164.5176 C.ar    1  UNL1        0.0221
     14 C         142.8687  141.3152  165.6484 C.ar    1  UNL1        0.1021
     15 N         142.7409  140.7376  167.0268 N.ar    1  UNL1       -0.2101
     16 C         142.2437  139.4868  169.7212 C.3     1  UNL1        0.2542
     17 O         142.9697  138.7243  168.6528 O.3     1  UNL1       -0.4561
     18 C         141.2778  141.5212  159.8742 C.ar    1  UNL1        0.0016
     19 C         140.1291  142.4685  160.0551 C.ar    1  UNL1        0.0014
     20 C         138.9636  142.4230  159.1119 C.ar    1  UNL1        0.0199
     21 C         138.9470  141.4301  157.9877 C.ar    1  UNL1        0.1222
     22 C         140.0959  140.4827  157.8067 C.ar    1  UNL1        0.0199
     23 C         141.2612  140.5283  158.7500 C.ar    1  UNL1        0.0014
     24 S         137.7816  141.3845  157.0444 S.O2    1  UNL1        0.0634
     25 O         137.9515  139.9006  156.9062 O.2     1  UNL1       -0.1528
     26 O         137.6117  142.8684  157.1826 O.2     1  UNL1       -0.1528
     27 N         136.6162  141.3390  156.1012 N.3     1  UNL1       -0.1504
     28 C         136.6929  142.0445  154.7796 C.3     1  UNL1        0.1279
     29 C         135.5275  141.9990  153.8364 C.3     1  UNL1        0.1613
     30 O         134.2854  141.2478  154.2146 O.3     1  UNL1       -0.3507
     31 C         134.2087  140.5423  155.5360 C.3     1  UNL1        0.1613
     32 C         135.3741  140.5878  156.4794 C.3     1  UNL1        0.1279
@<TRIPOS>BOND
     1    16    17    1
     2    17    10    1
     3    10    11   ar
     4    11    12   ar
     5    12    13   ar
     6    13     1    1
     7     1     2   ar
     8     2     3   ar
     9     3    18    1
    10    18    19   ar
    11    19    20   ar
    12    20    21   ar
    13    21    24    1
    14    24    25    2
    15    24    26    2
    16    24    27    1
    17    27    28    1
    18    28    29    1
    19    29    30    1
    20    30    31    1
    21    31    32    1
    22    21    22   ar
    23    22    23   ar
    24     3     4   ar
    25     4     5   ar
    26     5     6   ar
    27     6     7    1
    28    13    14   ar
    29    14    15   ar
    30    15    10   ar
    31     6     1   ar
    32    23    18   ar
    33    32    27    1
    34     7     8    1
    35     7     9    1
@<TRIPOS>MOLECULE
*****
 32 35 0 0 0
SMALL
GASTEIGER

@<TRIPOS>ATOM
      1 C         142.9173  137.2359  157.2347 C.ar    1  UNL1        0.0327
      2 C         142.6400  137.4035  158.6993 C.ar    1  UNL1        0.0044
      3 C         142.9208  138.7152  159.3705 C.ar    1  UNL1        0.0193
      4 C         143.4789  139.8593  158.5771 C.ar    1  UNL1        0.1002
      5 N         143.7562  139.6917  157.1126 N.ar    1  UNL1       -0.2296
      6 C         143.4754  138.3800  156.4414 C.ar    1  UNL1        0.1254
      7 N         143.7528  138.2124  154.9768 N.pl3   1  UNL1       -0.3426
      8 H         144.1191  138.9634  154.4561 H       1  UNL1        0.1437
      9 H         143.5685  137.3515  154.5362 H       1  UNL1        0.1437
     10 C         142.0748  133.3007  155.2211 C.ar    1  UNL1        0.2250
     11 C         143.3175  133.4714  156.0437 C.ar    1  UNL1        0.0577
     12 C         143.5983  134.7831  156.7149 C.ar    1  UNL1        0.0064
     13 C         142.6365  135.9242  156.5635 C.ar    1  UNL1        0.0221
     14 C         141.3938  135.7534  155.7410 C.ar    1  UNL1        0.1021
     15 N         141.1130  134.4417  155.0698 N.ar    1  UNL1       -0.2101
     16 C         142.7411  131.4582  153.5150 C.3     1  UNL1        0.2542
     17 O         141.7940  131.9890  154.5499 O.3     1  UNL1       -0.4561
     18 C         142.6434  138.8828  160.8351 C.ar    1  UNL1        0.0016
     19 C         143.6978  138.5329  161.8430 C.ar    1  UNL1        0.0014
     20 C         143.4205  138.7005  163.3076 C.ar    1  UNL1        0.0199
     21 C         142.0887  139.2180  163.7643 C.ar    1  UNL1        0.1222
     22 C         141.0343  139.5679  162.7564 C.ar    1  UNL1        0.0199
     23 C         141.3116  139.4003  161.2918 C.ar    1  UNL1        0.0014
     24 S         141.8113  139.3856  165.2288 S.O2    1  UNL1        0.0634
     25 O         142.7564  138.2622  165.5364 O.2     1  UNL1       -0.1528
     26 O         140.8662  140.5090  164.9213 O.2     1  UNL1       -0.1528
     27 N         141.5339  139.5532  166.6934 N.3     1  UNL1       -0.1504
     28 C         142.6321  139.3438  167.6935 C.3     1  UNL1        0.1279
     29 C         142.3547  139.5114  169.1581 C.3     1  UNL1        0.1613
     30 O         140.9792  139.8883  169.6225 O.3     1  UNL1       -0.3507
     31 C         139.8810  140.0977  168.6225 C.3     1  UNL1        0.1613
     32 C         140.1583  139.9301  167.1579 C.3     1  UNL1        0.1279
@<TRIPOS>BOND
     1    16    17    1
     2    17    10    1
     3    10    11   ar
     4    11    12   ar
     5    12    13   ar
     6    13     1    1
     7     1     2   ar
     8     2     3   ar
     9     3    18    1
    10    18    19   ar
    11    19    20   ar
    12    20    21   ar
    13    21    24    1
    14    24    25    2
    15    24    26    2
    16    24    27    1
    17    27    28    1
    18    28    29    1
    19    29    30    1
    20    30    31    1
    21    31    32    1
    22    21    22   ar
    23    22    23   ar
    24     3     4   ar
    25     4     5   ar
    26     5     6   ar
    27     6     7    1
    28    13    14   ar
    29    14    15   ar
    30    15    10   ar
    31     6     1   ar
    32    23    18   ar
    33    32    27    1
    34     7     8    1
    35     7     9    1
@<TRIPOS>MOLECULE
*****
 32 35 0 0 0
SMALL
GASTEIGER

@<TRIPOS>ATOM
      1 C         139.1590  141.9909  164.0558 C.ar    1  UNL1        0.0327
      2 C         139.6687  141.0498  163.0050 C.ar    1  UNL1        0.0044
      3 C         139.2684  141.2380  161.5717 C.ar    1  UNL1        0.0193
      4 C         138.3583  142.3674  161.1893 C.ar    1  UNL1        0.1002
      5 N         137.8486  143.3085  162.2402 N.ar    1  UNL1       -0.2296
      6 C         138.2490  143.1203  163.6734 C.ar    1  UNL1        0.1254
      7 N         137.7392  144.0615  164.7244 N.pl3   1  UNL1       -0.3426
      8 H         137.1419  144.8028  164.4734 H       1  UNL1        0.1437
      9 H         138.0019  143.9380  165.6651 H       1  UNL1        0.1437
     10 C         140.3600  141.4262  168.3557 C.ar    1  UNL1        0.2250
     11 C         140.7185  142.6930  167.6370 C.ar    1  UNL1        0.0577
     12 C         140.3182  142.8813  166.2038 C.ar    1  UNL1        0.0064
     13 C         139.5593  141.8027  165.4891 C.ar    1  UNL1        0.0221
     14 C         139.2008  140.5358  166.2078 C.ar    1  UNL1        0.1021
     15 N         139.6012  140.3476  167.6411 N.ar    1  UNL1       -0.2101
     16 C         141.3443  139.9317  170.2392 C.3     1  UNL1        0.2542
     17 O         140.7603  141.2379  169.7890 O.3     1  UNL1       -0.4561
     18 C         139.7781  140.2968  160.5208 C.ar    1  UNL1        0.0016
     19 C         139.1812  140.3145  159.1448 C.ar    1  UNL1        0.0014
     20 C         139.6909  139.3733  158.0939 C.ar    1  UNL1        0.0199
     21 C         140.7977  138.4144  158.4190 C.ar    1  UNL1        0.1222
     22 C         141.3946  138.3968  159.7951 C.ar    1  UNL1        0.0199
     23 C         140.8849  139.3379  160.8459 C.ar    1  UNL1        0.0014
     24 S         141.3074  137.4732  157.3682 S.O2    1  UNL1        0.0634
     25 O         139.9136  137.3094  156.8388 O.2     1  UNL1       -0.1528
     26 O         142.7013  137.6371  157.8976 O.2     1  UNL1       -0.1528
     27 N         141.8172  136.5321  156.3174 N.3     1  UNL1       -0.1504
     28 C         140.9288  136.1269  155.1787 C.3     1  UNL1        0.1279
     29 C         141.4385  135.1857  154.1279 C.3     1  UNL1        0.1613
     30 O         142.8367  134.6497  154.2157 O.3     1  UNL1       -0.3507
     31 C         143.7252  135.0548  155.3543 C.3     1  UNL1        0.1613
     32 C         143.2154  135.9960  156.4052 C.3     1  UNL1        0.1279
@<TRIPOS>BOND
     1    16    17    1
     2    17    10    1
     3    10    11   ar
     4    11    12   ar
     5    12    13   ar
     6    13     1    1
     7     1     2   ar
     8     2     3   ar
     9     3    18    1
    10    18    19   ar
    11    19    20   ar
    12    20    21   ar
    13    21    24    1
    14    24    25    2
    15    24    26    2
    16    24    27    1
    17    27    28    1
    18    28    29    1
    19    29    30    1
    20    30    31    1
    21    31    32    1
    22    21    22   ar
    23    22    23   ar
    24     3     4   ar
    25     4     5   ar
    26     5     6   ar
    27     6     7    1
    28    13    14   ar
    29    14    15   ar
    30    15    10   ar
    31     6     1   ar
    32    23    18   ar
    33    32    27    1
    34     7     8    1
    35     7     9    1
@<TRIPOS>MOLECULE
*****
 32 35 0 0 0
SMALL
GASTEIGER

@<TRIPOS>ATOM
      1 C         141.8148  142.9122  162.7799 C.ar    1  UNL1        0.0327
      2 C         141.7869  141.6969  161.9012 C.ar    1  UNL1        0.0044
      3 C         142.0271  141.8318  160.4267 C.ar    1  UNL1        0.0193
      4 C         142.2953  143.1820  159.8310 C.ar    1  UNL1        0.1002
      5 N         142.3232  144.3973  160.7097 N.ar    1  UNL1       -0.2296
      6 C         142.0830  144.2624  162.1842 C.ar    1  UNL1        0.1254
      7 N         142.1109  145.4778  163.0629 N.pl3   1  UNL1       -0.3426
      8 H         142.2870  146.3640  162.6719 H       1  UNL1        0.1437
      9 H         141.9533  145.3893  164.0306 H       1  UNL1        0.1437
     10 C         141.0941  142.5075  167.2034 C.ar    1  UNL1        0.2250
     11 C         142.4459  142.1972  166.6323 C.ar    1  UNL1        0.0577
     12 C         142.6862  142.3321  165.1578 C.ar    1  UNL1        0.0064
     13 C         141.5746  142.7773  164.2544 C.ar    1  UNL1        0.0221
     14 C         140.2228  143.0876  164.8255 C.ar    1  UNL1        0.1021
     15 N         139.9825  142.9527  166.3000 N.ar    1  UNL1       -0.2101
     16 C         140.3500  143.5452  169.4660 C.3     1  UNL1        0.2542
     17 O         140.8539  142.3726  168.6779 O.3     1  UNL1       -0.4561
     18 C         141.9992  140.6164  159.5480 C.ar    1  UNL1        0.0016
     19 C         142.6988  139.3620  159.9804 C.ar    1  UNL1        0.0014
     20 C         142.6708  138.1466  159.1017 C.ar    1  UNL1        0.0199
     21 C         141.9432  138.1856  157.7906 C.ar    1  UNL1        0.1222
     22 C         141.2436  139.4401  157.3582 C.ar    1  UNL1        0.0199
     23 C         141.2716  140.6554  158.2369 C.ar    1  UNL1        0.0014
     24 S         141.9152  136.9703  156.9119 S.O2    1  UNL1        0.0634
     25 O         140.4543  137.1910  156.6531 O.2     1  UNL1       -0.1528
     26 O         143.3761  136.7496  157.1706 O.2     1  UNL1       -0.1528
     27 N         141.8873  135.7550  156.0332 N.3     1  UNL1       -0.1504
     28 C         141.1535  135.7918  154.7254 C.3     1  UNL1        0.1279
     29 C         141.1255  134.5765  153.8467 C.3     1  UNL1        0.1613
     30 O         141.8313  133.3243  154.2757 O.3     1  UNL1       -0.3507
     31 C         142.5650  133.2875  155.5834 C.3     1  UNL1        0.1613
     32 C         142.5931  134.5029  156.4622 C.3     1  UNL1        0.1279
@<TRIPOS>BOND
     1    16    17    1
     2    17    10    1
     3    10    11   ar
     4    11    12   ar
     5    12    13   ar
     6    13     1    1
     7     1     2   ar
     8     2     3   ar
     9     3    18    1
    10    18    19   ar
    11    19    20   ar
    12    20    21   ar
    13    21    24    1
    14    24    25    2
    15    24    26    2
    16    24    27    1
    17    27    28    1
    18    28    29    1
    19    29    30    1
    20    30    31    1
    21    31    32    1
    22    21    22   ar
    23    22    23   ar
    24     3     4   ar
    25     4     5   ar
    26     5     6   ar
    27     6     7    1
    28    13    14   ar
    29    14    15   ar
    30    15    10   ar
    31     6     1   ar
    32    23    18   ar
    33    32    27    1
    34     7     8    1
    35     7     9    1
@<TRIPOS>MOLECULE
*****
 32 35 0 0 0
SMALL
GASTEIGER

@<TRIPOS>ATOM
      1 C         141.7556  139.6978  159.2904 C.ar    1  UNL1        0.0327
      2 C         141.4695  140.0388  160.7228 C.ar    1  UNL1        0.0044
      3 C         142.5113  139.7953  161.7742 C.ar    1  UNL1        0.0193
      4 C         143.8391  139.2108  161.3932 C.ar    1  UNL1        0.1002
      5 N         144.1252  138.8698  159.9608 N.ar    1  UNL1       -0.2296
      6 C         143.0834  139.1133  158.9094 C.ar    1  UNL1        0.1254
      7 N         143.3695  138.7723  157.4769 N.pl3   1  UNL1       -0.3426
      8 H         144.2410  138.3886  157.2269 H       1  UNL1        0.1437
      9 H         142.6858  138.9321  156.7868 H       1  UNL1        0.1437
     10 C         138.6303  140.4284  156.1362 C.ar    1  UNL1        0.2250
     11 C         139.5742  141.5272  156.5255 C.ar    1  UNL1        0.0577
     12 C         140.6160  141.2837  157.5769 C.ar    1  UNL1        0.0064
     13 C         140.7138  139.9413  158.2390 C.ar    1  UNL1        0.0221
     14 C         139.7700  138.8425  157.8497 C.ar    1  UNL1        0.1021
     15 N         138.7282  139.0860  156.7983 N.ar    1  UNL1       -0.2101
     16 C         136.5440  139.6314  154.8088 C.3     1  UNL1        0.2542
     17 O         137.5886  140.6719  155.0848 O.3     1  UNL1       -0.4561
     18 C         142.2252  140.1363  163.2067 C.ar    1  UNL1        0.0016
     19 C         141.0858  141.0508  163.5468 C.ar    1  UNL1        0.0014
     20 C         140.7997  141.3918  164.9793 C.ar    1  UNL1        0.0199
     21 C         141.6530  140.8184  166.0716 C.ar    1  UNL1        0.1222
     22 C         142.7923  139.9039  165.7314 C.ar    1  UNL1        0.0199
     23 C         143.0784  139.5629  164.2990 C.ar    1  UNL1        0.0014
     24 S         141.3669  141.1593  167.5040 S.O2    1  UNL1        0.0634
     25 O         141.9740  139.8572  167.9352 O.2     1  UNL1       -0.1528
     26 O         140.7598  142.4614  167.0728 O.2     1  UNL1       -0.1528
     27 N         141.0808  141.5003  168.9364 N.3     1  UNL1       -0.1504
     28 C         141.6781  140.6751  170.0375 C.3     1  UNL1        0.1279
     29 C         141.3921  141.0161  171.4699 C.3     1  UNL1        0.1613
     30 O         140.5087  142.1823  171.8013 O.3     1  UNL1       -0.3507
     31 C         139.9114  143.0074  170.7003 C.3     1  UNL1        0.1613
     32 C         140.1975  142.6664  169.2678 C.3     1  UNL1        0.1279
@<TRIPOS>BOND
     1    16    17    1
     2    17    10    1
     3    10    11   ar
     4    11    12   ar
     5    12    13   ar
     6    13     1    1
     7     1     2   ar
     8     2     3   ar
     9     3    18    1
    10    18    19   ar
    11    19    20   ar
    12    20    21   ar
    13    21    24    1
    14    24    25    2
    15    24    26    2
    16    24    27    1
    17    27    28    1
    18    28    29    1
    19    29    30    1
    20    30    31    1
    21    31    32    1
    22    21    22   ar
    23    22    23   ar
    24     3     4   ar
    25     4     5   ar
    26     5     6   ar
    27     6     7    1
    28    13    14   ar
    29    14    15   ar
    30    15    10   ar
    31     6     1   ar
    32    23    18   ar
    33    32    27    1
    34     7     8    1
    35     7     9    1
