@<TRIPOS>MOLECULE
*****
 28 31 0 0 0
SMALL
GASTEIGER

@<TRIPOS>ATOM
      1 C         140.1904  139.8933  171.3860 C.3     1  UNL1        0.0598
      2 C         140.9564  139.9365  170.0970 C.2     1  UNL1        0.1399
      3 N         140.3722  140.1415  168.7308 N.2     1  UNL1       -0.2191
      4 C         141.4957  140.1140  167.7374 C.3     1  UNL1        0.2959
      5 N         142.7743  139.8920  168.4897 N.2     1  UNL1       -0.0404
      6 C         142.4409  139.7823  169.9481 C.2     1  UNL1        0.3289
      7 N         143.4202  139.5578  171.0619 N.pl3   1  UNL1       -0.2454
      8 H         144.3802  139.4685  170.8627 H       1  UNL1        0.2885
      9 H         143.1030  139.4998  171.9920 H       1  UNL1        0.2885
     10 C         142.3911  140.1338  166.5340 C.ar    1  UNL1        0.0480
     11 C         143.1044  141.3964  166.1506 C.ar    1  UNL1        0.0044
     12 C         143.9998  141.4161  164.9473 C.ar    1  UNL1        0.0295
     13 C         144.1818  140.1732  164.1275 C.ar    1  UNL1        0.1401
     14 F         145.0772  140.1930  162.9241 F       1  UNL1       -0.2042
     15 C         143.4685  138.9107  164.5109 C.ar    1  UNL1        0.0295
     16 C         142.5731  138.8910  165.7142 C.ar    1  UNL1        0.0044
     17 C         140.4044  140.3402  166.7335 C.ar    1  UNL1        0.0479
     18 C         139.3210  139.3173  166.5602 C.ar    1  UNL1        0.0021
     19 C         138.2296  139.5434  165.5563 C.ar    1  UNL1       -0.0001
     20 C         138.2216  140.7924  164.7257 C.ar    1  UNL1        0.0000
     21 C         139.3049  141.8153  164.8990 C.ar    1  UNL1        0.0014
     22 C         140.3963  141.5892  165.9029 C.ar    1  UNL1        0.0021
     23 C         139.2969  143.0643  164.0685 C.ar    1  UNL1        0.0192
     24 C         140.5121  143.9425  164.0228 C.ar    1  UNL1        0.0031
     25 C         140.5041  145.1915  163.1922 C.ar    1  UNL1        0.0207
     26 C         139.2808  145.5624  162.4073 C.ar    1  UNL1        0.0989
     27 N         138.0656  144.6842  162.4530 N.ar    1  UNL1       -0.2423
     28 C         138.0736  143.4353  163.2834 C.ar    1  UNL1        0.0988
@<TRIPOS>BOND
     1     1     2    1
     2     2     3    2
     3     3     4    1
     4     4    10    1
     5    10    11   ar
     6    11    12   ar
     7    12    13   ar
     8    13    14    1
     9    13    15   ar
    10    15    16   ar
    11     4    17    1
    12    17    18   ar
    13    18    19   ar
    14    19    20   ar
    15    20    21   ar
    16    21    23    1
    17    23    24   ar
    18    24    25   ar
    19    25    26   ar
    20    26    27   ar
    21    27    28   ar
    22    21    22   ar
    23     4     5    1
    24     5     6    2
    25     6     7    1
    26     6     2    1
    27    16    10   ar
    28    22    17   ar
    29    28    23   ar
    30     7     8    1
    31     7     9    1
@<TRIPOS>MOLECULE
*****
 28 31 0 0 0
SMALL
GASTEIGER

@<TRIPOS>ATOM
      1 C         139.6648  142.9569  170.7839 C.3     1  UNL1        0.0598
      2 C         139.9064  142.0059  169.6494 C.2     1  UNL1        0.1399
      3 N         140.7341  142.2814  168.4291 N.2     1  UNL1       -0.2191
      4 C         140.7020  141.0582  167.5615 C.3     1  UNL1        0.2959
      5 N         139.8545  140.0268  168.2455 N.2     1  UNL1       -0.0404
      6 C         139.3628  140.6125  169.5360 C.2     1  UNL1        0.3289
      7 N         138.4822  139.9255  170.5371 N.pl3   1  UNL1       -0.2454
      8 H         138.1749  139.0047  170.3725 H       1  UNL1        0.2885
      9 H         138.2114  140.3953  171.3589 H       1  UNL1        0.2885
     10 C         140.8538  140.0046  166.5046 C.ar    1  UNL1        0.0480
     11 C         142.1463  139.2549  166.3731 C.ar    1  UNL1        0.0044
     12 C         142.2980  138.2014  165.3163 C.ar    1  UNL1        0.0295
     13 C         141.1572  137.8976  164.3909 C.ar    1  UNL1        0.1401
     14 F         141.3089  136.8440  163.3340 F       1  UNL1       -0.2042
     15 C         139.8647  138.6473  164.5224 C.ar    1  UNL1        0.0295
     16 C         139.7130  139.7008  165.5792 C.ar    1  UNL1        0.0044
     17 C         141.5812  141.8694  166.6565 C.ar    1  UNL1        0.0479
     18 C         143.0551  141.9544  166.9216 C.ar    1  UNL1        0.0021
     19 C         143.9344  142.7656  166.0166 C.ar    1  UNL1       -0.0001
     20 C         143.3397  143.4917  164.8465 C.ar    1  UNL1        0.0000
     21 C         141.8658  143.4067  164.5814 C.ar    1  UNL1        0.0014
     22 C         140.9865  142.5956  165.4864 C.ar    1  UNL1        0.0021
     23 C         141.2711  144.1328  163.4114 C.ar    1  UNL1        0.0192
     24 C         139.9514  144.8315  163.5543 C.ar    1  UNL1        0.0031
     25 C         139.3567  145.5576  162.3842 C.ar    1  UNL1        0.0207
     26 C         140.0816  145.5851  161.0713 C.ar    1  UNL1        0.0989
     27 N         141.4012  144.8865  160.9285 N.ar    1  UNL1       -0.2423
     28 C         141.9960  144.1604  162.0984 C.ar    1  UNL1        0.0988
@<TRIPOS>BOND
     1     1     2    1
     2     2     3    2
     3     3     4    1
     4     4    10    1
     5    10    11   ar
     6    11    12   ar
     7    12    13   ar
     8    13    14    1
     9    13    15   ar
    10    15    16   ar
    11     4    17    1
    12    17    18   ar
    13    18    19   ar
    14    19    20   ar
    15    20    21   ar
    16    21    23    1
    17    23    24   ar
    18    24    25   ar
    19    25    26   ar
    20    26    27   ar
    21    27    28   ar
    22    21    22   ar
    23     4     5    1
    24     5     6    2
    25     6     7    1
    26     6     2    1
    27    16    10   ar
    28    22    17   ar
    29    28    23   ar
    30     7     8    1
    31     7     9    1
@<TRIPOS>MOLECULE
*****
 28 31 0 0 0
SMALL
GASTEIGER

@<TRIPOS>ATOM
      1 C         139.6846  143.2241  170.9581 C.3     1  UNL1        0.0598
      2 C         140.5369  142.5946  169.8963 C.2     1  UNL1        0.1399
      3 N         140.0394  141.8498  168.6932 N.2     1  UNL1       -0.2191
      4 C         141.2313  141.3943  167.9045 C.3     1  UNL1        0.2959
      5 N         142.4653  141.8577  168.6203 N.2     1  UNL1       -0.0404
      6 C         142.0361  142.5995  169.8514 C.2     1  UNL1        0.3289
      7 N         142.9464  143.2347  170.8602 N.pl3   1  UNL1       -0.2454
      8 H         143.9226  143.1843  170.7431 H       1  UNL1        0.2885
      9 H         142.5677  143.7021  171.6396 H       1  UNL1        0.2885
     10 C         142.2078  140.8167  166.9233 C.ar    1  UNL1        0.0480
     11 C         142.9300  141.7171  165.9654 C.ar    1  UNL1        0.0044
     12 C         143.9065  141.1395  164.9843 C.ar    1  UNL1        0.0295
     13 C         144.1609  139.6614  164.9610 C.ar    1  UNL1        0.1401
     14 F         145.1374  139.0837  163.9798 F       1  UNL1       -0.2042
     15 C         143.4387  138.7609  165.9189 C.ar    1  UNL1        0.0295
     16 C         142.4622  139.3386  166.9000 C.ar    1  UNL1        0.0044
     17 C         140.2014  140.8102  166.9836 C.ar    1  UNL1        0.0479
     18 C         139.3682  139.6463  167.4321 C.ar    1  UNL1        0.0021
     19 C         138.3382  139.0621  166.5111 C.ar    1  UNL1       -0.0001
     20 C         138.1415  139.6418  165.1417 C.ar    1  UNL1        0.0000
     21 C         138.9748  140.8057  164.6932 C.ar    1  UNL1        0.0014
     22 C         140.0047  141.3899  165.6142 C.ar    1  UNL1        0.0021
     23 C         138.7781  141.3854  163.3239 C.ar    1  UNL1        0.0192
     24 C         139.2727  140.6439  162.1175 C.ar    1  UNL1        0.0031
     25 C         139.0761  141.2236  160.7480 C.ar    1  UNL1        0.0207
     26 C         138.3848  142.5448  160.5851 C.ar    1  UNL1        0.0989
     27 N         137.8902  143.2863  161.7916 N.ar    1  UNL1       -0.2423
     28 C         138.0868  142.7067  163.1609 C.ar    1  UNL1        0.0988
@<TRIPOS>BOND
     1     1     2    1
     2     2     3    2
     3     3     4    1
     4     4    10    1
     5    10    11   ar
     6    11    12   ar
     7    12    13   ar
     8    13    14    1
     9    13    15   ar
    10    15    16   ar
    11     4    17    1
    12    17    18   ar
    13    18    19   ar
    14    19    20   ar
    15    20    21   ar
    16    21    23    1
    17    23    24   ar
    18    24    25   ar
    19    25    26   ar
    20    26    27   ar
    21    27    28   ar
    22    21    22   ar
    23     4     5    1
    24     5     6    2
    25     6     7    1
    26     6     2    1
    27    16    10   ar
    28    22    17   ar
    29    28    23   ar
    30     7     8    1
    31     7     9    1
@<TRIPOS>MOLECULE
*****
 28 31 0 0 0
SMALL
GASTEIGER

@<TRIPOS>ATOM
      1 C         139.7508  143.0829  170.7249 C.3     1  UNL1        0.0598
      2 C         140.6998  142.7819  169.6030 C.2     1  UNL1        0.1399
      3 N         140.3204  142.4958  168.1802 N.2     1  UNL1       -0.2191
      4 C         141.5809  142.2512  167.4047 C.3     1  UNL1        0.2959
      5 N         142.7392  142.3861  168.3481 N.2     1  UNL1       -0.0404
      6 C         142.1946  142.7141  169.7068 C.2     1  UNL1        0.3289
      7 N         143.0030  142.9355  170.9508 N.pl3   1  UNL1       -0.2454
      8 H         143.9847  142.8691  170.9182 H       1  UNL1        0.2885
      9 H         142.5518  143.1472  171.7998 H       1  UNL1        0.2885
     10 C         142.6457  141.9659  166.3874 C.ar    1  UNL1        0.0480
     11 C         143.5090  143.0794  165.8729 C.ar    1  UNL1        0.0044
     12 C         144.5738  142.7941  164.8557 C.ar    1  UNL1        0.0295
     13 C         144.7752  141.3953  164.3529 C.ar    1  UNL1        0.1401
     14 F         145.8401  141.1100  163.3356 F       1  UNL1       -0.2042
     15 C         143.9119  140.2818  164.8674 C.ar    1  UNL1        0.0295
     16 C         142.8471  140.5671  165.8846 C.ar    1  UNL1        0.0044
     17 C         140.6452  142.0566  166.2486 C.ar    1  UNL1        0.0479
     18 C         139.6700  140.9169  166.2566 C.ar    1  UNL1        0.0021
     19 C         138.7343  140.7223  165.1004 C.ar    1  UNL1       -0.0001
     20 C         138.7738  141.6674  163.9363 C.ar    1  UNL1        0.0000
     21 C         139.7489  142.8071  163.9283 C.ar    1  UNL1        0.0014
     22 C         140.6847  143.0017  165.0844 C.ar    1  UNL1        0.0021
     23 C         139.7884  143.7521  162.7642 C.ar    1  UNL1        0.0192
     24 C         139.9811  145.2213  162.9971 C.ar    1  UNL1        0.0031
     25 C         140.0206  146.1665  161.8330 C.ar    1  UNL1        0.0207
     26 C         139.8674  145.6424  160.4359 C.ar    1  UNL1        0.0989
     27 N         139.6747  144.1732  160.2030 N.ar    1  UNL1       -0.2423
     28 C         139.6352  143.2280  161.3670 C.ar    1  UNL1        0.0988
@<TRIPOS>BOND
     1     1     2    1
     2     2     3    2
     3     3     4    1
     4     4    10    1
     5    10    11   ar
     6    11    12   ar
     7    12    13   ar
     8    13    14    1
     9    13    15   ar
    10    15    16   ar
    11     4    17    1
    12    17    18   ar
    13    18    19   ar
    14    19    20   ar
    15    20    21   ar
    16    21    23    1
    17    23    24   ar
    18    24    25   ar
    19    25    26   ar
    20    26    27   ar
    21    27    28   ar
    22    21    22   ar
    23     4     5    1
    24     5     6    2
    25     6     7    1
    26     6     2    1
    27    16    10   ar
    28    22    17   ar
    29    28    23   ar
    30     7     8    1
    31     7     9    1
@<TRIPOS>MOLECULE
*****
 28 31 0 0 0
SMALL
GASTEIGER

@<TRIPOS>ATOM
      1 C         143.1917  143.2445  170.7458 C.3     1  UNL1        0.0598
      2 C         142.2510  142.8623  169.6418 C.2     1  UNL1        0.1399
      3 N         142.5106  141.8377  168.5775 N.2     1  UNL1       -0.2191
      4 C         141.3055  141.7797  167.6861 C.3     1  UNL1        0.2959
      5 N         140.3012  142.7685  168.1996 N.2     1  UNL1       -0.0404
      6 C         140.8856  143.4376  169.4083 C.2     1  UNL1        0.3289
      7 N         140.2211  144.4961  170.2377 N.pl3   1  UNL1       -0.2454
      8 H         139.3181  144.8105  170.0033 H       1  UNL1        0.2885
      9 H         140.6880  144.8764  171.0166 H       1  UNL1        0.2885
     10 C         140.2650  141.5029  166.6418 C.ar    1  UNL1        0.0480
     11 C         139.5372  140.1913  166.6373 C.ar    1  UNL1        0.0044
     12 C         138.4967  139.9146  165.5930 C.ar    1  UNL1        0.0295
     13 C         138.1840  140.9494  164.5531 C.ar    1  UNL1        0.1401
     14 F         137.1434  140.6726  163.5087 F       1  UNL1       -0.2042
     15 C         138.9118  142.2610  164.5575 C.ar    1  UNL1        0.0295
     16 C         139.9523  142.5377  165.6019 C.ar    1  UNL1        0.0044
     17 C         142.0923  140.7331  166.9544 C.ar    1  UNL1        0.0479
     18 C         142.6111  139.5336  167.6906 C.ar    1  UNL1        0.0021
     19 C         143.3979  138.4868  166.9588 C.ar    1  UNL1       -0.0001
     20 C         143.6659  138.6397  165.4908 C.ar    1  UNL1        0.0000
     21 C         143.1471  139.8392  164.7547 C.ar    1  UNL1        0.0014
     22 C         142.3603  140.8859  165.4864 C.ar    1  UNL1        0.0021
     23 C         143.4150  139.9920  163.2868 C.ar    1  UNL1        0.0192
     24 C         143.6710  138.7800  162.4409 C.ar    1  UNL1        0.0031
     25 C         143.9390  138.9329  160.9730 C.ar    1  UNL1        0.0207
     26 C         143.9509  140.2978  160.3509 C.ar    1  UNL1        0.0989
     27 N         143.6950  141.5098  161.1968 N.ar    1  UNL1       -0.2423
     28 C         143.4270  141.3570  162.6646 C.ar    1  UNL1        0.0988
@<TRIPOS>BOND
     1     1     2    1
     2     2     3    2
     3     3     4    1
     4     4    10    1
     5    10    11   ar
     6    11    12   ar
     7    12    13   ar
     8    13    14    1
     9    13    15   ar
    10    15    16   ar
    11     4    17    1
    12    17    18   ar
    13    18    19   ar
    14    19    20   ar
    15    20    21   ar
    16    21    23    1
    17    23    24   ar
    18    24    25   ar
    19    25    26   ar
    20    26    27   ar
    21    27    28   ar
    22    21    22   ar
    23     4     5    1
    24     5     6    2
    25     6     7    1
    26     6     2    1
    27    16    10   ar
    28    22    17   ar
    29    28    23   ar
    30     7     8    1
    31     7     9    1
@<TRIPOS>MOLECULE
*****
 28 31 0 0 0
SMALL
GASTEIGER

@<TRIPOS>ATOM
      1 C         139.5010  140.4557  170.6893 C.3     1  UNL1        0.0598
      2 C         140.1887  141.1451  169.5484 C.2     1  UNL1        0.1399
      3 N         140.7784  140.4777  168.3414 N.2     1  UNL1       -0.2191
      4 C         141.3616  141.5431  167.4612 C.3     1  UNL1        0.2959
      5 N         141.1324  142.8689  168.1243 N.2     1  UNL1       -0.0404
      6 C         140.4075  142.6230  169.4142 C.2     1  UNL1        0.3289
      7 N         139.9769  143.6708  170.3973 N.pl3   1  UNL1       -0.2454
      8 H         140.1672  144.6203  170.2197 H       1  UNL1        0.2885
      9 H         139.5041  143.4091  171.2203 H       1  UNL1        0.2885
     10 C         142.0217  142.3674  166.3958 C.ar    1  UNL1        0.0480
     11 C         141.1868  143.0741  165.3694 C.ar    1  UNL1        0.0044
     12 C         141.8469  143.8983  164.3041 C.ar    1  UNL1        0.0295
     13 C         143.3418  144.0158  164.2652 C.ar    1  UNL1        0.1401
     14 F         144.0018  144.8400  163.1997 F       1  UNL1       -0.2042
     15 C         144.1766  143.3090  165.2915 C.ar    1  UNL1        0.0295
     16 C         143.5166  142.4848  166.3569 C.ar    1  UNL1        0.0044
     17 C         141.7289  140.3896  166.5755 C.ar    1  UNL1        0.0479
     18 C         142.8860  139.5058  166.9361 C.ar    1  UNL1        0.0021
     19 C         143.2532  138.3523  166.0504 C.ar    1  UNL1       -0.0001
     20 C         142.4634  138.0825  164.8040 C.ar    1  UNL1        0.0000
     21 C         141.3063  138.9663  164.4434 C.ar    1  UNL1        0.0014
     22 C         140.9390  140.1199  165.3291 C.ar    1  UNL1        0.0021
     23 C         140.5165  138.6966  163.1971 C.ar    1  UNL1        0.0192
     24 C         139.0500  138.3949  163.2891 C.ar    1  UNL1        0.0031
     25 C         138.2602  138.1252  162.0427 C.ar    1  UNL1        0.0207
     26 C         138.9368  138.1572  160.7044 C.ar    1  UNL1        0.0989
     27 N         140.4032  138.4589  160.6124 N.ar    1  UNL1       -0.2423
     28 C         141.1931  138.7286  161.8586 C.ar    1  UNL1        0.0988
@<TRIPOS>BOND
     1     1     2    1
     2     2     3    2
     3     3     4    1
     4     4    10    1
     5    10    11   ar
     6    11    12   ar
     7    12    13   ar
     8    13    14    1
     9    13    15   ar
    10    15    16   ar
    11     4    17    1
    12    17    18   ar
    13    18    19   ar
    14    19    20   ar
    15    20    21   ar
    16    21    23    1
    17    23    24   ar
    18    24    25   ar
    19    25    26   ar
    20    26    27   ar
    21    27    28   ar
    22    21    22   ar
    23     4     5    1
    24     5     6    2
    25     6     7    1
    26     6     2    1
    27    16    10   ar
    28    22    17   ar
    29    28    23   ar
    30     7     8    1
    31     7     9    1
@<TRIPOS>MOLECULE
*****
 28 31 0 0 0
SMALL
GASTEIGER

@<TRIPOS>ATOM
      1 C         142.4811  138.9241  170.1643 C.3     1  UNL1        0.0598
      2 C         141.6784  139.7201  169.1784 C.2     1  UNL1        0.1399
      3 N         142.1784  140.2741  167.8772 N.2     1  UNL1       -0.2191
      4 C         141.0438  140.9982  167.2152 C.3     1  UNL1        0.2959
      5 N         139.8426  140.8917  168.1072 N.2     1  UNL1       -0.0404
      6 C         140.2348  140.1018  169.3205 C.2     1  UNL1        0.3289
      7 N         139.3404  139.7545  170.4735 N.pl3   1  UNL1       -0.2454
      8 H         138.4020  140.0522  170.4756 H       1  UNL1        0.2885
      9 H         139.6918  139.2290  171.2282 H       1  UNL1        0.2885
     10 C         140.1200  141.7787  166.3278 C.ar    1  UNL1        0.0480
     11 C         139.0927  141.0640  165.5008 C.ar    1  UNL1        0.0044
     12 C         138.1689  141.8445  164.6135 C.ar    1  UNL1        0.0295
     13 C         138.2724  143.3397  164.5532 C.ar    1  UNL1        0.1401
     14 F         137.3485  144.1202  163.6658 F       1  UNL1       -0.2042
     15 C         139.2996  144.0544  165.3801 C.ar    1  UNL1        0.0295
     16 C         140.2234  143.2739  166.2674 C.ar    1  UNL1        0.0044
     17 C         142.0519  141.2678  166.1377 C.ar    1  UNL1        0.0479
     18 C         143.0681  142.3565  166.3168 C.ar    1  UNL1        0.0021
     19 C         144.0763  142.6262  165.2393 C.ar    1  UNL1       -0.0001
     20 C         144.0682  141.8072  163.9826 C.ar    1  UNL1        0.0000
     21 C         143.0520  140.7185  163.8035 C.ar    1  UNL1        0.0014
     22 C         142.0438  140.4488  164.8810 C.ar    1  UNL1        0.0021
     23 C         143.0439  139.8996  162.5469 C.ar    1  UNL1        0.0192
     24 C         143.5033  140.5054  161.2539 C.ar    1  UNL1        0.0031
     25 C         143.4952  139.6864  159.9972 C.ar    1  UNL1        0.0207
     26 C         143.0277  138.2616  160.0336 C.ar    1  UNL1        0.0989
     27 N         142.5682  137.6558  161.3266 N.ar    1  UNL1       -0.2423
     28 C         142.5763  138.4747  162.5832 C.ar    1  UNL1        0.0988
@<TRIPOS>BOND
     1     1     2    1
     2     2     3    2
     3     3     4    1
     4     4    10    1
     5    10    11   ar
     6    11    12   ar
     7    12    13   ar
     8    13    14    1
     9    13    15   ar
    10    15    16   ar
    11     4    17    1
    12    17    18   ar
    13    18    19   ar
    14    19    20   ar
    15    20    21   ar
    16    21    23    1
    17    23    24   ar
    18    24    25   ar
    19    25    26   ar
    20    26    27   ar
    21    27    28   ar
    22    21    22   ar
    23     4     5    1
    24     5     6    2
    25     6     7    1
    26     6     2    1
    27    16    10   ar
    28    22    17   ar
    29    28    23   ar
    30     7     8    1
    31     7     9    1
@<TRIPOS>MOLECULE
*****
 28 31 0 0 0
SMALL
GASTEIGER

@<TRIPOS>ATOM
      1 C         140.5324  142.6388  171.0058 C.3     1  UNL1        0.0598
      2 C         140.2857  141.8121  169.7788 C.2     1  UNL1        0.1399
      3 N         140.3861  142.2885  168.3600 N.2     1  UNL1       -0.2191
      4 C         140.0577  141.1347  167.4594 C.3     1  UNL1        0.2959
      5 N         139.7545  139.9454  168.3216 N.2     1  UNL1       -0.0404
      6 C         139.8954  140.3640  169.7551 C.2     1  UNL1        0.3289
      7 N         139.6832  139.4883  170.9543 N.pl3   1  UNL1       -0.2454
      8 H         139.4270  138.5452  170.8359 H       1  UNL1        0.2885
      9 H         139.8002  139.8567  171.8597 H       1  UNL1        0.2885
     10 C         139.7807  140.1883  166.3291 C.ar    1  UNL1        0.0480
     11 C         138.5540  140.3671  165.4847 C.ar    1  UNL1        0.0044
     12 C         138.2770  139.4207  164.3544 C.ar    1  UNL1        0.0295
     13 C         139.2267  138.2954  164.0686 C.ar    1  UNL1        0.1401
     14 F         138.9497  137.3489  162.9383 F       1  UNL1       -0.2042
     15 C         140.4535  138.1166  164.9130 C.ar    1  UNL1        0.0295
     16 C         140.7305  139.0630  166.0432 C.ar    1  UNL1        0.0044
     17 C         140.3031  142.1262  166.3609 C.ar    1  UNL1        0.0479
     18 C         139.3881  143.3031  166.1947 C.ar    1  UNL1        0.0021
     19 C         139.6334  144.2947  165.0961 C.ar    1  UNL1       -0.0001
     20 C         140.7937  144.1093  164.1638 C.ar    1  UNL1        0.0000
     21 C         141.7088  142.9324  164.3300 C.ar    1  UNL1        0.0014
     22 C         141.4635  141.9408  165.4286 C.ar    1  UNL1        0.0021
     23 C         142.8691  142.7470  163.3977 C.ar    1  UNL1        0.0192
     24 C         143.8906  141.6839  163.6738 C.ar    1  UNL1        0.0031
     25 C         145.0509  141.4985  162.7415 C.ar    1  UNL1        0.0207
     26 C         145.1898  142.3762  161.5331 C.ar    1  UNL1        0.0989
     27 N         144.1683  143.4394  161.2570 N.ar    1  UNL1       -0.2423
     28 C         143.0080  143.6248  162.1892 C.ar    1  UNL1        0.0988
@<TRIPOS>BOND
     1     1     2    1
     2     2     3    2
     3     3     4    1
     4     4    10    1
     5    10    11   ar
     6    11    12   ar
     7    12    13   ar
     8    13    14    1
     9    13    15   ar
    10    15    16   ar
    11     4    17    1
    12    17    18   ar
    13    18    19   ar
    14    19    20   ar
    15    20    21   ar
    16    21    23    1
    17    23    24   ar
    18    24    25   ar
    19    25    26   ar
    20    26    27   ar
    21    27    28   ar
    22    21    22   ar
    23     4     5    1
    24     5     6    2
    25     6     7    1
    26     6     2    1
    27    16    10   ar
    28    22    17   ar
    29    28    23   ar
    30     7     8    1
    31     7     9    1
@<TRIPOS>MOLECULE
*****
 28 31 0 0 0
SMALL
GASTEIGER

@<TRIPOS>ATOM
      1 C         143.9612  142.5836  170.1466 C.3     1  UNL1        0.0598
      2 C         143.1152  141.7219  169.2568 C.2     1  UNL1        0.1399
      3 N         142.4884  142.1415  167.9602 N.2     1  UNL1       -0.2191
      4 C         141.7333  140.9683  167.4095 C.3     1  UNL1        0.2959
      5 N         141.8934  139.8237  168.3657 N.2     1  UNL1       -0.0404
      6 C         142.7475  140.2895  169.5074 C.2     1  UNL1        0.3289
      7 N         143.1612  139.4672  170.6918 N.pl3   1  UNL1       -0.2454
      8 H         142.8677  138.5306  170.7674 H       1  UNL1        0.2885
      9 H         143.7262  139.8643  171.3935 H       1  UNL1        0.2885
     10 C         140.9086  139.9917  166.6245 C.ar    1  UNL1        0.0480
     11 C         141.5804  138.9815  165.7423 C.ar    1  UNL1        0.0044
     12 C         140.7557  138.0050  164.9573 C.ar    1  UNL1        0.0295
     13 C         139.2592  138.0386  165.0545 C.ar    1  UNL1        0.1401
     14 F         138.4345  137.0620  164.2695 F       1  UNL1       -0.2042
     15 C         138.5874  139.0487  165.9367 C.ar    1  UNL1        0.0295
     16 C         139.4121  140.0253  166.7217 C.ar    1  UNL1        0.0044
     17 C         141.4008  141.9087  166.2892 C.ar    1  UNL1        0.0479
     18 C         140.2789  142.8922  166.4436 C.ar    1  UNL1        0.0021
     19 C         139.9463  143.8327  165.3233 C.ar    1  UNL1       -0.0001
     20 C         140.7357  143.7895  164.0485 C.ar    1  UNL1        0.0000
     21 C         141.8576  142.8059  163.8941 C.ar    1  UNL1        0.0014
     22 C         142.1902  141.8654  165.0144 C.ar    1  UNL1        0.0021
     23 C         142.6469  142.7627  162.6194 C.ar    1  UNL1        0.0192
     24 C         142.0014  143.1558  161.3237 C.ar    1  UNL1        0.0031
     25 C         142.7907  143.1126  160.0490 C.ar    1  UNL1        0.0207
     26 C         144.2257  142.6763  160.0698 C.ar    1  UNL1        0.0989
     27 N         144.8713  142.2832  161.3655 N.ar    1  UNL1       -0.2423
     28 C         144.0821  142.3264  162.6402 C.ar    1  UNL1        0.0988
@<TRIPOS>BOND
     1     1     2    1
     2     2     3    2
     3     3     4    1
     4     4    10    1
     5    10    11   ar
     6    11    12   ar
     7    12    13   ar
     8    13    14    1
     9    13    15   ar
    10    15    16   ar
    11     4    17    1
    12    17    18   ar
    13    18    19   ar
    14    19    20   ar
    15    20    21   ar
    16    21    23    1
    17    23    24   ar
    18    24    25   ar
    19    25    26   ar
    20    26    27   ar
    21    27    28   ar
    22    21    22   ar
    23     4     5    1
    24     5     6    2
    25     6     7    1
    26     6     2    1
    27    16    10   ar
    28    22    17   ar
    29    28    23   ar
    30     7     8    1
    31     7     9    1
