@<TRIPOS>MOLECULE
*****
 28 32 0 0 0
SMALL
GASTEIGER

@<TRIPOS>ATOM
      1 C         139.8938  139.6702  166.4582 C.ar    1  UNL1        0.1453
      2 C         139.0103  140.5866  165.6647 C.ar    1  UNL1        0.0403
      3 C         138.6882  139.9096  164.3655 C.ar    1  UNL1        0.0378
      4 C         137.8601  140.3362  163.1898 C.ar    1  UNL1        0.0306
      5 C         137.7164  139.4279  162.0046 C.ar    1  UNL1        0.1311
      6 O         136.8882  139.8545  160.8289 O.3     1  UNL1       -0.5058
      7 C         138.4007  138.0933  161.9952 C.ar    1  UNL1        0.0395
      8 C         139.2289  137.6667  163.1709 C.ar    1  UNL1        0.0406
      9 C         139.3726  138.5749  164.3560 C.ar    1  UNL1        0.1452
     10 O         140.1177  138.4269  165.6494 O.2     1  UNL1       -0.4535
     11 H         136.4607  140.6883  160.8348 H       1  UNL1        0.2922
     12 O         142.1382  140.7825  171.9104 O.3     1  UNL1       -0.5055
     13 C         141.5771  140.5044  170.5473 C.ar    1  UNL1        0.1337
     14 C         140.0942  140.5426  170.3246 C.ar    1  UNL1        0.0367
     15 C         139.5332  140.2645  168.9615 C.ar    1  UNL1        0.0061
     16 C         140.4549  139.9483  167.8212 C.ar    1  UNL1        0.0348
     17 C         141.9378  139.9101  168.0439 C.ar    1  UNL1        0.0061
     18 C         142.4989  140.1882  169.4070 C.ar    1  UNL1        0.0367
     19 H         141.5624  140.9800  172.6227 H       1  UNL1        0.2922
     20 C         137.1757  141.6709  163.1991 C.3     1  UNL1        0.1023
     21 N         137.9730  142.9241  162.9900 N.3     1  UNL1       -0.2687
     22 C         138.0939  144.0640  163.9575 C.3     1  UNL1        0.0726
     23 C         138.9850  145.1018  163.3420 C.3     1  UNL1        0.0235
     24 C         139.4149  144.6033  161.9941 C.3     1  UNL1        0.0707
     25 C         139.9642  144.3070  160.6301 C.3     1  UNL1        0.1458
     26 O         140.6845  145.6227  160.6343 O.3     1  UNL1       -0.3535
     27 C         140.1352  145.9190  161.9984 C.3     1  UNL1        0.1458
     28 C         138.7894  143.2574  161.7766 C.3     1  UNL1        0.0772
@<TRIPOS>BOND
     1    12    13    1
     2    13    14   ar
     3    14    15   ar
     4    15    16   ar
     5    16     1    1
     6     1     2   ar
     7     2     3   ar
     8     3     4   ar
     9     4    20    1
    10    20    21    1
    11    21    22    1
    12    22    23    1
    13    23    24    1
    14    24    25    1
    15    25    26    1
    16    26    27    1
    17    24    28    1
    18     4     5   ar
    19     5     6    1
    20     5     7   ar
    21     7     8   ar
    22     8     9   ar
    23     9    10   ar
    24    16    17   ar
    25    17    18   ar
    26    18    13   ar
    27    10     1   ar
    28     9     3   ar
    29    28    21    1
    30    27    24    1
    31    12    19    1
    32     6    11    1
@<TRIPOS>MOLECULE
*****
 28 32 0 0 0
SMALL
GASTEIGER

@<TRIPOS>ATOM
      1 C         140.6076  142.9731  166.5407 C.ar    1  UNL1        0.1453
      2 C         141.7459  142.9390  165.5645 C.ar    1  UNL1        0.0403
      3 C         141.3349  143.7115  164.3462 C.ar    1  UNL1        0.0378
      4 C         142.0486  144.0151  163.0623 C.ar    1  UNL1        0.0306
      5 C         141.3700  144.8305  162.0017 C.ar    1  UNL1        0.1311
      6 O         142.0837  145.1342  160.7177 O.3     1  UNL1       -0.5058
      7 C         139.9778  145.3420  162.2250 C.ar    1  UNL1        0.0395
      8 C         139.2641  145.0383  163.5089 C.ar    1  UNL1        0.0406
      9 C         139.9427  144.2231  164.5695 C.ar    1  UNL1        0.1452
     10 O         139.4931  143.7667  165.9258 O.2     1  UNL1       -0.4535
     11 H         142.9534  144.8146  160.5782 H       1  UNL1        0.2922
     12 O         140.5264  140.3891  171.9552 O.3     1  UNL1       -0.5055
     13 C         140.5467  141.0351  170.6016 C.ar    1  UNL1        0.1337
     14 C         140.4409  142.5264  170.4807 C.ar    1  UNL1        0.0367
     15 C         140.4612  143.1724  169.1270 C.ar    1  UNL1        0.0061
     16 C         140.5873  142.3271  167.8943 C.ar    1  UNL1        0.0348
     17 C         140.6932  140.8357  168.0153 C.ar    1  UNL1        0.0061
     18 C         140.6729  140.1898  169.3690 C.ar    1  UNL1        0.0367
     19 H         140.4476  140.9171  172.7252 H       1  UNL1        0.2922
     20 C         143.4409  143.5036  162.8389 C.3     1  UNL1        0.1023
     21 N         143.6582  142.0822  162.4119 N.3     1  UNL1       -0.2687
     22 C         144.0911  140.9518  163.2978 C.3     1  UNL1        0.0726
     23 C         144.1811  139.7126  162.4574 C.3     1  UNL1        0.0235
     24 C         143.8039  140.0771  161.0522 C.3     1  UNL1        0.0707
     25 C         143.4653  140.2148  159.5973 C.3     1  UNL1        0.1458
     26 O         143.7388  138.7538  159.3954 O.3     1  UNL1       -0.3535
     27 C         144.0775  138.6162  160.8502 C.3     1  UNL1        0.1458
     28 C         143.4807  141.5416  161.0241 C.3     1  UNL1        0.0772
@<TRIPOS>BOND
     1    12    13    1
     2    13    14   ar
     3    14    15   ar
     4    15    16   ar
     5    16     1    1
     6     1     2   ar
     7     2     3   ar
     8     3     4   ar
     9     4    20    1
    10    20    21    1
    11    21    22    1
    12    22    23    1
    13    23    24    1
    14    24    25    1
    15    25    26    1
    16    26    27    1
    17    24    28    1
    18     4     5   ar
    19     5     6    1
    20     5     7   ar
    21     7     8   ar
    22     8     9   ar
    23     9    10   ar
    24    16    17   ar
    25    17    18   ar
    26    18    13   ar
    27    10     1   ar
    28     9     3   ar
    29    28    21    1
    30    27    24    1
    31    12    19    1
    32     6    11    1
@<TRIPOS>MOLECULE
*****
 28 32 0 0 0
SMALL
GASTEIGER

@<TRIPOS>ATOM
      1 C         140.7433  141.9230  166.9230 C.ar    1  UNL1        0.1453
      2 C         140.2369  141.1640  165.7324 C.ar    1  UNL1        0.0403
      3 C         139.5193  142.1306  164.8375 C.ar    1  UNL1        0.0378
      4 C         138.8167  141.9509  163.5245 C.ar    1  UNL1        0.0306
      5 C         138.1769  143.1276  162.8491 C.ar    1  UNL1        0.1311
      6 O         137.4743  142.9479  161.5360 O.3     1  UNL1       -0.5058
      7 C         138.2397  144.4838  163.4866 C.ar    1  UNL1        0.0395
      8 C         138.9423  144.6635  164.7996 C.ar    1  UNL1        0.0406
      9 C         139.5821  143.4869  165.4751 C.ar    1  UNL1        0.1452
     10 O         140.3386  143.3586  166.7640 O.2     1  UNL1       -0.4535
     11 H         137.4350  142.1007  161.1377 H       1  UNL1        0.2922
     12 O         143.8434  139.6208  171.5153 O.3     1  UNL1       -0.5055
     13 C         143.0684  140.1963  170.3672 C.ar    1  UNL1        0.1337
     14 C         143.4041  141.5619  169.8453 C.ar    1  UNL1        0.0367
     15 C         142.6290  142.1374  168.6972 C.ar    1  UNL1        0.0061
     16 C         141.5183  141.3474  168.0710 C.ar    1  UNL1        0.0348
     17 C         141.1826  139.9818  168.5930 C.ar    1  UNL1        0.0061
     18 C         141.9577  139.4063  169.7411 C.ar    1  UNL1        0.0367
     19 H         144.5373  140.1143  171.9064 H       1  UNL1        0.2922
     20 C         138.7538  140.5946  162.8869 C.3     1  UNL1        0.1023
     21 N         140.0123  139.8062  162.6753 N.3     1  UNL1       -0.2687
     22 C         140.2220  138.3660  163.0383 C.3     1  UNL1        0.0726
     23 C         141.6213  137.9894  162.6510 C.3     1  UNL1        0.0235
     24 C         142.2764  139.1968  162.0486 C.3     1  UNL1        0.0707
     25 C         143.1204  140.2662  161.4206 C.3     1  UNL1        0.1458
     26 O         144.2608  139.2987  161.3059 O.3     1  UNL1       -0.3535
     27 C         143.4169  138.2294  161.9339 C.3     1  UNL1        0.1458
     28 C         141.2820  140.3197  162.0637 C.3     1  UNL1        0.0772
@<TRIPOS>BOND
     1    12    13    1
     2    13    14   ar
     3    14    15   ar
     4    15    16   ar
     5    16     1    1
     6     1     2   ar
     7     2     3   ar
     8     3     4   ar
     9     4    20    1
    10    20    21    1
    11    21    22    1
    12    22    23    1
    13    23    24    1
    14    24    25    1
    15    25    26    1
    16    26    27    1
    17    24    28    1
    18     4     5   ar
    19     5     6    1
    20     5     7   ar
    21     7     8   ar
    22     8     9   ar
    23     9    10   ar
    24    16    17   ar
    25    17    18   ar
    26    18    13   ar
    27    10     1   ar
    28     9     3   ar
    29    28    21    1
    30    27    24    1
    31    12    19    1
    32     6    11    1
@<TRIPOS>MOLECULE
*****
 28 32 0 0 0
SMALL
GASTEIGER

@<TRIPOS>ATOM
      1 C         142.8009  141.5435  166.8950 C.ar    1  UNL1        0.1453
      2 C         142.5703  140.3789  165.9782 C.ar    1  UNL1        0.0403
      3 C         143.3937  140.5916  164.7426 C.ar    1  UNL1        0.0378
      4 C         143.5657  139.7726  163.4978 C.ar    1  UNL1        0.0306
      5 C         144.4773  140.2496  162.4062 C.ar    1  UNL1        0.1311
      6 O         144.6493  139.4305  161.1613 O.3     1  UNL1       -0.5058
      7 C         145.2167  141.5456  162.5594 C.ar    1  UNL1        0.0395
      8 C         145.0448  142.3646  163.8042 C.ar    1  UNL1        0.0406
      9 C         144.1333  141.8877  164.8958 C.ar    1  UNL1        0.1452
     10 O         143.7668  142.4760  166.2261 O.2     1  UNL1       -0.4535
     11 H         144.1873  138.6209  161.0656 H       1  UNL1        0.2922
     12 O         140.2986  142.3336  172.2908 O.3     1  UNL1       -0.5055
     13 C         140.9241  142.1360  170.9419 C.ar    1  UNL1        0.1337
     14 C         140.1115  141.5740  169.8133 C.ar    1  UNL1        0.0367
     15 C         140.7371  141.3765  168.4644 C.ar    1  UNL1        0.0061
     16 C         142.1753  141.7410  168.2440 C.ar    1  UNL1        0.0348
     17 C         142.9880  142.3031  169.3725 C.ar    1  UNL1        0.0061
     18 C         142.3624  142.5006  170.7215 C.ar    1  UNL1        0.0367
     19 H         139.4002  142.1058  172.4285 H       1  UNL1        0.2922
     20 C         142.8262  138.4765  163.3445 C.3     1  UNL1        0.1023
     21 N         141.3716  138.4818  162.9786 N.3     1  UNL1       -0.2687
     22 C         140.4083  137.3493  163.1776 C.3     1  UNL1        0.0726
     23 C         139.0662  137.7881  162.6714 C.3     1  UNL1        0.0235
     24 C         139.2000  139.1917  162.1596 C.3     1  UNL1        0.0707
     25 C         139.1046  140.5789  161.5969 C.3     1  UNL1        0.1458
     26 O         137.6470  140.3646  161.3155 O.3     1  UNL1       -0.3535
     27 C         137.7423  138.9773  161.8783 C.3     1  UNL1        0.1458
     28 C         140.6248  139.6204  162.3495 C.3     1  UNL1        0.0772
@<TRIPOS>BOND
     1    12    13    1
     2    13    14   ar
     3    14    15   ar
     4    15    16   ar
     5    16     1    1
     6     1     2   ar
     7     2     3   ar
     8     3     4   ar
     9     4    20    1
    10    20    21    1
    11    21    22    1
    12    22    23    1
    13    23    24    1
    14    24    25    1
    15    25    26    1
    16    26    27    1
    17    24    28    1
    18     4     5   ar
    19     5     6    1
    20     5     7   ar
    21     7     8   ar
    22     8     9   ar
    23     9    10   ar
    24    16    17   ar
    25    17    18   ar
    26    18    13   ar
    27    10     1   ar
    28     9     3   ar
    29    28    21    1
    30    27    24    1
    31    12    19    1
    32     6    11    1
@<TRIPOS>MOLECULE
*****
 28 32 0 0 0
SMALL
GASTEIGER

@<TRIPOS>ATOM
      1 C         141.5984  142.5977  166.5042 C.ar    1  UNL1        0.1453
      2 C         142.3860  142.9166  165.2681 C.ar    1  UNL1        0.0403
      3 C         141.5104  143.7239  164.3562 C.ar    1  UNL1        0.0378
      4 C         141.7514  144.3184  163.0003 C.ar    1  UNL1        0.0306
      5 C         140.6635  145.0929  162.3169 C.ar    1  UNL1        0.1311
      6 O         140.9045  145.6874  160.9609 O.3     1  UNL1       -0.5058
      7 C         139.3350  145.2728  162.9894 C.ar    1  UNL1        0.0395
      8 C         139.0940  144.6784  164.3453 C.ar    1  UNL1        0.0406
      9 C         140.1817  143.9039  165.0287 C.ar    1  UNL1        0.1452
     10 O         140.2361  143.2078  166.3563 O.2     1  UNL1       -0.4535
     11 H         141.7345  145.5750  160.5408 H       1  UNL1        0.2922
     12 O         143.5540  139.4361  171.2139 O.3     1  UNL1       -0.5055
     13 C         143.0651  140.2265  170.0365 C.ar    1  UNL1        0.1337
     14 C         142.1994  139.5719  169.0011 C.ar    1  UNL1        0.0367
     15 C         141.7105  140.3624  167.8237 C.ar    1  UNL1        0.0061
     16 C         142.0873  141.8073  167.6817 C.ar    1  UNL1        0.0348
     17 C         142.9530  142.4619  168.7171 C.ar    1  UNL1        0.0061
     18 C         143.4419  141.6714  169.8945 C.ar    1  UNL1        0.0367
     19 H         143.3186  138.5335  171.3026 H       1  UNL1        0.2922
     20 C         143.0800  144.1385  162.3277 C.3     1  UNL1        0.1023
     21 N         143.2685  143.0432  161.3203 N.3     1  UNL1       -0.2687
     22 C         143.1379  143.1816  159.8325 C.3     1  UNL1        0.0726
     23 C         143.4094  141.8411  159.2167 C.3     1  UNL1        0.0235
     24 C         143.7077  140.8742  160.3239 C.3     1  UNL1        0.0707
     25 C         144.0318  139.7477  161.2599 C.3     1  UNL1        0.1458
     26 O         144.1713  138.8172  160.0919 O.3     1  UNL1       -0.3535
     27 C         143.8472  139.9436  159.1558 C.3     1  UNL1        0.1458
     28 C         143.6206  141.6171  161.6241 C.3     1  UNL1        0.0772
@<TRIPOS>BOND
     1    12    13    1
     2    13    14   ar
     3    14    15   ar
     4    15    16   ar
     5    16     1    1
     6     1     2   ar
     7     2     3   ar
     8     3     4   ar
     9     4    20    1
    10    20    21    1
    11    21    22    1
    12    22    23    1
    13    23    24    1
    14    24    25    1
    15    25    26    1
    16    26    27    1
    17    24    28    1
    18     4     5   ar
    19     5     6    1
    20     5     7   ar
    21     7     8   ar
    22     8     9   ar
    23     9    10   ar
    24    16    17   ar
    25    17    18   ar
    26    18    13   ar
    27    10     1   ar
    28     9     3   ar
    29    28    21    1
    30    27    24    1
    31    12    19    1
    32     6    11    1
@<TRIPOS>MOLECULE
*****
 28 32 0 0 0
SMALL
GASTEIGER

@<TRIPOS>ATOM
      1 C         140.4618  139.7509  166.8446 C.ar    1  UNL1        0.1453
      2 C         141.6498  139.6065  165.9402 C.ar    1  UNL1        0.0403
      3 C         141.2037  138.8904  164.6999 C.ar    1  UNL1        0.0378
      4 C         141.9412  138.4713  163.4628 C.ar    1  UNL1        0.0306
      5 C         141.2150  137.7540  162.3636 C.ar    1  UNL1        0.1311
      6 O         141.9525  137.3349  161.1264 O.3     1  UNL1       -0.5058
      7 C         139.7515  137.4559  162.5015 C.ar    1  UNL1        0.0395
      8 C         139.0140  137.8750  163.7386 C.ar    1  UNL1        0.0406
      9 C         139.7401  138.5922  164.8378 C.ar    1  UNL1        0.1452
     10 O         139.2816  139.1240  166.1633 O.2     1  UNL1       -0.4535
     11 H         142.8668  137.5212  161.0402 H       1  UNL1        0.2922
     12 O         140.4356  142.3752  172.2402 O.3     1  UNL1       -0.5055
     13 C         140.4422  141.7191  170.8913 C.ar    1  UNL1        0.1337
     14 C         141.6190  141.8942  169.9779 C.ar    1  UNL1        0.0367
     15 C         141.6255  141.2381  168.6290 C.ar    1  UNL1        0.0061
     16 C         140.4553  140.4069  168.1935 C.ar    1  UNL1        0.0348
     17 C         139.2784  140.2319  169.1069 C.ar    1  UNL1        0.0061
     18 C         139.2719  140.8880  170.4558 C.ar    1  UNL1        0.0367
     19 H         141.1666  142.8944  172.5122 H       1  UNL1        0.2922
     20 C         143.4048  138.7694  163.3248 C.3     1  UNL1        0.1023
     21 N         143.8688  140.1854  163.1526 N.3     1  UNL1       -0.2687
     22 C         145.1881  140.7415  163.6000 C.3     1  UNL1        0.0726
     23 C         145.2295  142.1937  163.2265 C.3     1  UNL1        0.0235
     24 C         143.9359  142.5351  162.5483 C.3     1  UNL1        0.0707
     25 C         142.7307  143.0937  161.8515 C.3     1  UNL1        0.1458
     26 O         143.3913  144.4389  161.7874 O.3     1  UNL1       -0.3535
     27 C         144.5965  143.8802  162.4842 C.3     1  UNL1        0.1458
     28 C         143.0949  141.2938  162.5026 C.3     1  UNL1        0.0772
@<TRIPOS>BOND
     1    12    13    1
     2    13    14   ar
     3    14    15   ar
     4    15    16   ar
     5    16     1    1
     6     1     2   ar
     7     2     3   ar
     8     3     4   ar
     9     4    20    1
    10    20    21    1
    11    21    22    1
    12    22    23    1
    13    23    24    1
    14    24    25    1
    15    25    26    1
    16    26    27    1
    17    24    28    1
    18     4     5   ar
    19     5     6    1
    20     5     7   ar
    21     7     8   ar
    22     8     9   ar
    23     9    10   ar
    24    16    17   ar
    25    17    18   ar
    26    18    13   ar
    27    10     1   ar
    28     9     3   ar
    29    28    21    1
    30    27    24    1
    31    12    19    1
    32     6    11    1
@<TRIPOS>MOLECULE
*****
 28 32 0 0 0
SMALL
GASTEIGER

@<TRIPOS>ATOM
      1 C         139.9670  140.8533  166.7884 C.ar    1  UNL1        0.1453
      2 C         139.7499  141.8016  165.6466 C.ar    1  UNL1        0.0403
      3 C         139.2088  141.0165  164.4887 C.ar    1  UNL1        0.0378
      4 C         138.8078  141.4217  163.1012 C.ar    1  UNL1        0.0306
      5 C         138.2895  140.3934  162.1399 C.ar    1  UNL1        0.1311
      6 O         137.8884  140.7987  160.7524 O.3     1  UNL1       -0.5058
      7 C         138.1723  138.9601  162.5660 C.ar    1  UNL1        0.0395
      8 C         138.5734  138.5548  163.9534 C.ar    1  UNL1        0.0406
      9 C         139.0917  139.5831  164.9147 C.ar    1  UNL1        0.1452
     10 O         139.5603  139.4822  166.3361 O.2     1  UNL1       -0.4535
     11 H         137.9616  141.6941  160.4863 H       1  UNL1        0.2922
     12 O         142.0902  142.2920  172.2127 O.3     1  UNL1       -0.5055
     13 C         141.5594  141.9323  170.8567 C.ar    1  UNL1        0.1337
     14 C         140.5102  140.8690  170.7197 C.ar    1  UNL1        0.0367
     15 C         139.9795  140.5094  169.3636 C.ar    1  UNL1        0.0061
     16 C         140.4978  141.2130  168.1445 C.ar    1  UNL1        0.0348
     17 C         141.5470  142.2763  168.2814 C.ar    1  UNL1        0.0061
     18 C         142.0777  142.6359  169.6375 C.ar    1  UNL1        0.0367
     19 H         141.7664  141.8525  172.9743 H       1  UNL1        0.2922
     20 C         138.9249  142.8552  162.6751 C.3     1  UNL1        0.1023
     21 N         140.2012  143.6065  162.9132 N.3     1  UNL1       -0.2687
     22 C         140.3608  144.8215  163.7781 C.3     1  UNL1        0.0726
     23 C         141.8002  145.2406  163.7276 C.3     1  UNL1        0.0235
     24 C         142.5301  144.2846  162.8314 C.3     1  UNL1        0.0707
     25 C         143.4508  143.4578  161.9835 C.3     1  UNL1        0.1458
     26 O         144.5971  144.3494  162.3588 O.3     1  UNL1       -0.3535
     27 C         143.6765  145.1761  163.2067 C.3     1  UNL1        0.1458
     28 C         141.5419  143.2746  162.3281 C.3     1  UNL1        0.0772
@<TRIPOS>BOND
     1    12    13    1
     2    13    14   ar
     3    14    15   ar
     4    15    16   ar
     5    16     1    1
     6     1     2   ar
     7     2     3   ar
     8     3     4   ar
     9     4    20    1
    10    20    21    1
    11    21    22    1
    12    22    23    1
    13    23    24    1
    14    24    25    1
    15    25    26    1
    16    26    27    1
    17    24    28    1
    18     4     5   ar
    19     5     6    1
    20     5     7   ar
    21     7     8   ar
    22     8     9   ar
    23     9    10   ar
    24    16    17   ar
    25    17    18   ar
    26    18    13   ar
    27    10     1   ar
    28     9     3   ar
    29    28    21    1
    30    27    24    1
    31    12    19    1
    32     6    11    1
@<TRIPOS>MOLECULE
*****
 28 32 0 0 0
SMALL
GASTEIGER

@<TRIPOS>ATOM
      1 C         141.8746  139.5701  166.2348 C.ar    1  UNL1        0.1453
      2 C         140.8924  139.5916  165.1012 C.ar    1  UNL1        0.0403
      3 C         141.6448  139.3256  163.8311 C.ar    1  UNL1        0.0378
      4 C         141.1991  139.2287  162.4021 C.ar    1  UNL1        0.0306
      5 C         142.2005  138.9459  161.3217 C.ar    1  UNL1        0.1311
      6 O         141.7548  138.8490  159.8927 O.3     1  UNL1       -0.5058
      7 C         143.6475  138.7602  161.6703 C.ar    1  UNL1        0.0395
      8 C         144.0932  138.8571  163.0992 C.ar    1  UNL1        0.0406
      9 C         143.0918  139.1399  164.1796 C.ar    1  UNL1        0.1452
     10 O         143.2339  139.2910  165.6652 O.2     1  UNL1       -0.4535
     11 H         140.8509  138.9650  159.6749 H       1  UNL1        0.2922
     12 O         140.5912  140.4470  172.0300 O.3     1  UNL1       -0.5055
     13 C         140.9120  140.2278  170.5812 C.ar    1  UNL1        0.1337
     14 C         139.8349  140.3617  169.5459 C.ar    1  UNL1        0.0367
     15 C         140.1558  140.1424  168.0971 C.ar    1  UNL1        0.0061
     16 C         141.5538  139.7893  167.6836 C.ar    1  UNL1        0.0348
     17 C         142.6309  139.6555  168.7189 C.ar    1  UNL1        0.0061
     18 C         142.3100  139.8747  170.1677 C.ar    1  UNL1        0.0367
     19 H         139.7180  140.6676  172.2883 H       1  UNL1        0.2922
     20 C         139.7520  139.4145  162.0535 C.3     1  UNL1        0.1023
     21 N         139.0536  140.6939  162.4072 N.3     1  UNL1       -0.2687
     22 C         137.8109  140.8197  163.2377 C.3     1  UNL1        0.0726
     23 C         137.4646  142.2758  163.3362 C.3     1  UNL1        0.0235
     24 C         138.4933  143.0500  162.5666 C.3     1  UNL1        0.0707
     25 C         139.4001  144.0149  161.8617 C.3     1  UNL1        0.1458
     26 O         138.5494  145.1575  162.3314 O.3     1  UNL1       -0.3535
     27 C         137.6426  144.1927  163.0363 C.3     1  UNL1        0.1458
     28 C         139.4753  142.0724  161.9924 C.3     1  UNL1        0.0772
@<TRIPOS>BOND
     1    12    13    1
     2    13    14   ar
     3    14    15   ar
     4    15    16   ar
     5    16     1    1
     6     1     2   ar
     7     2     3   ar
     8     3     4   ar
     9     4    20    1
    10    20    21    1
    11    21    22    1
    12    22    23    1
    13    23    24    1
    14    24    25    1
    15    25    26    1
    16    26    27    1
    17    24    28    1
    18     4     5   ar
    19     5     6    1
    20     5     7   ar
    21     7     8   ar
    22     8     9   ar
    23     9    10   ar
    24    16    17   ar
    25    17    18   ar
    26    18    13   ar
    27    10     1   ar
    28     9     3   ar
    29    28    21    1
    30    27    24    1
    31    12    19    1
    32     6    11    1
@<TRIPOS>MOLECULE
*****
 28 32 0 0 0
SMALL
GASTEIGER

@<TRIPOS>ATOM
      1 C         141.3829  140.4508  166.8602 C.ar    1  UNL1        0.1453
      2 C         140.3461  140.7907  165.8309 C.ar    1  UNL1        0.0403
      3 C         140.2273  139.6276  164.8911 C.ar    1  UNL1        0.0378
      4 C         139.3664  139.3959  163.6848 C.ar    1  UNL1        0.0306
      5 C         139.4688  138.1053  162.9271 C.ar    1  UNL1        0.1311
      6 O         138.6078  137.8735  161.7208 O.3     1  UNL1       -0.5058
      7 C         140.4321  137.0467  163.3756 C.ar    1  UNL1        0.0395
      8 C         141.2931  137.2785  164.5818 C.ar    1  UNL1        0.0406
      9 C         141.1907  138.5689  165.3395 C.ar    1  UNL1        0.1452
     10 O         141.9049  139.0777  166.5565 O.2     1  UNL1       -0.4535
     11 H         138.0060  138.5349  161.4406 H       1  UNL1        0.2922
     12 O         143.1348  143.9663  171.3959 O.3     1  UNL1       -0.5055
     13 C         142.6968  143.0874  170.2620 C.ar    1  UNL1        0.1337
     14 C         141.3288  143.2535  169.6695 C.ar    1  UNL1        0.0367
     15 C         140.8909  142.3746  168.5355 C.ar    1  UNL1        0.0061
     16 C         141.8209  141.3296  167.9941 C.ar    1  UNL1        0.0348
     17 C         143.1889  141.1635  168.5866 C.ar    1  UNL1        0.0061
     18 C         143.6268  142.0425  169.7205 C.ar    1  UNL1        0.0367
     19 H         142.5539  144.6190  171.7341 H       1  UNL1        0.2922
     20 C         138.4030  140.4546  163.2363 C.3     1  UNL1        0.1023
     21 N         138.9017  141.6520  162.4831 N.3     1  UNL1       -0.2687
     22 C         139.7455  141.6250  161.2432 C.3     1  UNL1        0.0726
     23 C         140.0095  143.0430  160.8313 C.3     1  UNL1        0.0235
     24 C         139.3290  143.9463  161.8166 C.3     1  UNL1        0.0707
     25 C         138.7348  145.0258  162.6721 C.3     1  UNL1        0.1458
     26 O         139.3338  146.0672  161.7740 O.3     1  UNL1       -0.3535
     27 C         139.9280  144.9877  160.9186 C.3     1  UNL1        0.1458
     28 C         138.6443  143.0865  162.8375 C.3     1  UNL1        0.0772
@<TRIPOS>BOND
     1    12    13    1
     2    13    14   ar
     3    14    15   ar
     4    15    16   ar
     5    16     1    1
     6     1     2   ar
     7     2     3   ar
     8     3     4   ar
     9     4    20    1
    10    20    21    1
    11    21    22    1
    12    22    23    1
    13    23    24    1
    14    24    25    1
    15    25    26    1
    16    26    27    1
    17    24    28    1
    18     4     5   ar
    19     5     6    1
    20     5     7   ar
    21     7     8   ar
    22     8     9   ar
    23     9    10   ar
    24    16    17   ar
    25    17    18   ar
    26    18    13   ar
    27    10     1   ar
    28     9     3   ar
    29    28    21    1
    30    27    24    1
    31    12    19    1
    32     6    11    1
