@<TRIPOS>MOLECULE
*****
 34 37 0 0 0
SMALL
GASTEIGER

@<TRIPOS>ATOM
      1 C         142.0219  138.8181  161.5086 C.ar    1  UNL1        0.2204
      2 N         140.7328  139.1419  160.8133 N.ar    1  UNL1       -0.2089
      3 C         140.5417  138.7650  159.3741 C.ar    1  UNL1        0.1402
      4 C         141.6397  138.0641  158.6301 C.ar    1  UNL1        0.1773
      5 C         142.9288  137.7403  159.3255 C.ar    1  UNL1        0.1402
      6 N         143.1198  138.1173  160.7648 N.ar    1  UNL1       -0.2089
      7 C         141.1012  136.9639  163.6799 C.3     1  UNL1        0.0233
      8 C         141.7526  138.2680  164.0335 C.3     1  UNL1        0.0955
      9 C         141.9437  138.6450  165.4727 C.3     1  UNL1        0.1149
     10 N         142.5951  139.9491  165.8263 N.pl3   1  UNL1       -0.2590
     11 C         143.0554  140.8762  164.7407 C.3     1  UNL1        0.1166
     12 C         142.8644  140.4992  163.3015 C.3     1  UNL1        0.1151
     13 N         142.2129  139.1951  162.9479 N.pl3   1  UNL1       -0.2764
     14 C         142.7862  140.3261  167.2655 C.ar    1  UNL1        0.3120
     15 N         142.8355  139.3775  168.4264 N.ar    1  UNL1       -0.0922
     16 N         143.0413  140.1830  169.6749 N.ar    1  UNL1       -0.1018
     17 C         143.1190  141.6296  169.2856 C.ar    1  UNL1        0.3233
     18 O         142.9614  141.7180  167.7966 O.2     1  UNL1       -0.4012
     19 C         143.3193  142.7848  170.2212 C.3     1  UNL1        0.4711
     20 F         143.5196  143.9401  171.1568 F       1  UNL1       -0.1619
     21 F         141.8328  142.9411  170.3465 F       1  UNL1       -0.1619
     22 F         144.8059  142.6286  170.0959 F       1  UNL1       -0.1619
     23 O         141.4486  137.6872  157.1909 O.3     1  UNL1       -0.4675
     24 C         142.5343  136.9584  156.4560 C.3     1  UNL1        0.2328
     25 C         142.4895  135.4635  156.3415 C.ar    1  UNL1        0.0308
     26 C         143.3100  134.6154  157.2675 C.ar    1  UNL1        0.0007
     27 C         143.2652  133.1204  157.1529 C.ar    1  UNL1        0.0101
     28 C         142.3998  132.4735  156.1124 C.ar    1  UNL1        0.0691
     29 C         141.5793  133.3216  155.1864 C.ar    1  UNL1        0.0203
     30 C         141.6241  134.8165  155.3009 C.ar    1  UNL1        0.0686
     31 C         142.3550  130.9786  155.9979 C.1     1  UNL1        0.1004
     32 N         142.3102  129.4836  155.8834 N.1     1  UNL1       -0.1908
     33 C         140.8035  135.6646  154.3749 C.1     1  UNL1        0.1002
     34 N         139.9830  136.5127  153.4489 N.1     1  UNL1       -0.1908
@<TRIPOS>BOND
     1     8     7    1
     2     8     9    1
     3     9    10    1
     4    10    14    1
     5    14    15   ar
     6    15    16   ar
     7    16    17   ar
     8    17    19    1
     9    19    20    1
    10    19    21    1
    11    19    22    1
    12    17    18   ar
    13    10    11    1
    14    11    12    1
    15    12    13    1
    16    13     1    1
    17     1     2   ar
    18     2     3   ar
    19     3     4   ar
    20     4    23    1
    21    23    24    1
    22    24    25    1
    23    25    26   ar
    24    26    27   ar
    25    27    28   ar
    26    28    31    1
    27    31    32    3
    28    28    29   ar
    29    29    30   ar
    30    30    33    1
    31    33    34    3
    32     4     5   ar
    33     5     6   ar
    34    13     8    1
    35     6     1   ar
    36    18    14   ar
    37    30    25   ar
@<TRIPOS>MOLECULE
*****
 34 37 0 0 0
SMALL
GASTEIGER

@<TRIPOS>ATOM
      1 C         139.1539  142.8629  160.5664 C.ar    1  UNL1        0.2204
      2 N         137.9755  143.2183  161.4238 N.ar    1  UNL1       -0.2089
      3 C         137.6912  142.4340  162.6704 C.ar    1  UNL1        0.1402
      4 C         138.5853  141.2941  163.0596 C.ar    1  UNL1        0.1773
      5 C         139.7637  140.9387  162.2022 C.ar    1  UNL1        0.1402
      6 N         140.0480  141.7231  160.9556 N.ar    1  UNL1       -0.2089
      7 C         140.5382  145.5182  160.7479 C.3     1  UNL1        0.0233
      8 C         140.1303  144.9749  159.4106 C.3     1  UNL1        0.0955
      9 C         140.4145  145.7593  158.1640 C.3     1  UNL1        0.1149
     10 N         140.0066  145.2159  156.8267 N.pl3   1  UNL1       -0.2590
     11 C         139.3145  143.8883  156.7359 C.3     1  UNL1        0.1166
     12 C         139.0303  143.1040  157.9825 C.3     1  UNL1        0.1151
     13 N         139.4382  143.6473  159.3198 N.pl3   1  UNL1       -0.2764
     14 C         140.2909  146.0003  155.5801 C.ar    1  UNL1        0.3120
     15 N         141.0897  145.5256  154.4026 N.ar    1  UNL1       -0.0922
     16 N         141.1187  146.6290  153.3869 N.ar    1  UNL1       -0.1018
     17 C         140.3379  147.7858  153.9368 C.ar    1  UNL1        0.3233
     18 O         139.8263  147.3972  155.2922 O.2     1  UNL1       -0.4012
     19 C         140.1089  149.1003  153.2515 C.3     1  UNL1        0.4711
     20 F         139.8800  150.4148  152.5662 F       1  UNL1       -0.1619
     21 F         139.1576  149.5018  154.3395 F       1  UNL1       -0.1619
     22 F         141.0603  148.6988  152.1635 F       1  UNL1       -0.1619
     23 O         138.3010  140.5098  164.3062 O.3     1  UNL1       -0.4675
     24 C         139.4249  139.8540  165.0523 C.3     1  UNL1        0.2328
     25 C         139.8025  140.3414  166.4197 C.ar    1  UNL1        0.0308
     26 C         140.8821  141.3707  166.5774 C.ar    1  UNL1        0.0007
     27 C         141.2596  141.8581  167.9449 C.ar    1  UNL1        0.0101
     28 C         140.5576  141.3162  169.1546 C.ar    1  UNL1        0.0691
     29 C         139.4780  140.2868  168.9969 C.ar    1  UNL1        0.0203
     30 C         139.1004  139.7994  167.6295 C.ar    1  UNL1        0.0686
     31 C         140.9352  141.8036  170.5220 C.1     1  UNL1        0.1004
     32 N         141.3128  142.2910  171.8895 N.1     1  UNL1       -0.1908
     33 C         138.0208  138.7700  167.4718 C.1     1  UNL1        0.1002
     34 N         136.9412  137.7407  167.3141 N.1     1  UNL1       -0.1908
@<TRIPOS>BOND
     1     8     7    1
     2     8     9    1
     3     9    10    1
     4    10    14    1
     5    14    15   ar
     6    15    16   ar
     7    16    17   ar
     8    17    19    1
     9    19    20    1
    10    19    21    1
    11    19    22    1
    12    17    18   ar
    13    10    11    1
    14    11    12    1
    15    12    13    1
    16    13     1    1
    17     1     2   ar
    18     2     3   ar
    19     3     4   ar
    20     4    23    1
    21    23    24    1
    22    24    25    1
    23    25    26   ar
    24    26    27   ar
    25    27    28   ar
    26    28    31    1
    27    31    32    3
    28    28    29   ar
    29    29    30   ar
    30    30    33    1
    31    33    34    3
    32     4     5   ar
    33     5     6   ar
    34    13     8    1
    35     6     1   ar
    36    18    14   ar
    37    30    25   ar
@<TRIPOS>MOLECULE
*****
 34 37 0 0 0
SMALL
GASTEIGER

@<TRIPOS>ATOM
      1 C         139.1515  142.4554  162.1862 C.ar    1  UNL1        0.2204
      2 N         138.0822  142.9453  163.1171 N.ar    1  UNL1       -0.2089
      3 C         137.8098  142.2135  164.3978 C.ar    1  UNL1        0.1402
      4 C         138.6068  140.9917  164.7476 C.ar    1  UNL1        0.1773
      5 C         139.6761  140.5019  163.8167 C.ar    1  UNL1        0.1402
      6 N         139.9484  141.2338  162.5359 N.ar    1  UNL1       -0.2089
      7 C         140.6093  145.0769  162.2373 C.3     1  UNL1        0.0233
      8 C         140.1527  144.4980  160.9310 C.3     1  UNL1        0.0955
      9 C         140.4250  145.2298  159.6503 C.3     1  UNL1        0.1149
     10 N         139.9684  144.6510  158.3440 N.pl3   1  UNL1       -0.2590
     11 C         139.2395  143.3402  158.3184 C.3     1  UNL1        0.1166
     12 C         138.9672  142.6084  159.5991 C.3     1  UNL1        0.1151
     13 N         139.4238  143.1873  160.9054 N.pl3   1  UNL1       -0.2764
     14 C         140.2407  145.3828  157.0632 C.ar    1  UNL1        0.3120
     15 N         141.2217  144.9731  156.0050 N.ar    1  UNL1       -0.0922
     16 N         141.1671  145.9900  154.9037 N.ar    1  UNL1       -0.1018
     17 C         140.1524  147.0282  155.2812 C.ar    1  UNL1        0.3233
     18 O         139.5799  146.6530  156.6159 O.2     1  UNL1       -0.4012
     19 C         139.7762  148.2305  154.4670 C.3     1  UNL1        0.4711
     20 F         139.4001  149.4329  153.6529 F       1  UNL1       -0.1619
     21 F         140.8103  147.8619  153.4449 F       1  UNL1       -0.1619
     22 F         138.7421  148.5992  155.4891 F       1  UNL1       -0.1619
     23 O         138.3345  140.2599  166.0283 O.3     1  UNL1       -0.4675
     24 C         139.4351  139.4984  166.7057 C.3     1  UNL1        0.2328
     25 C         140.5408  140.2368  167.4000 C.ar    1  UNL1        0.0308
     26 C         141.7815  140.6123  166.6452 C.ar    1  UNL1        0.0007
     27 C         142.8872  141.3507  167.3396 C.ar    1  UNL1        0.0101
     28 C         142.7523  141.7136  168.7887 C.ar    1  UNL1        0.0691
     29 C         141.5116  141.3381  169.5435 C.ar    1  UNL1        0.0203
     30 C         140.4059  140.5998  168.8492 C.ar    1  UNL1        0.0686
     31 C         143.8580  142.4520  169.4830 C.1     1  UNL1        0.1004
     32 N         144.9638  143.1904  170.1774 N.1     1  UNL1       -0.1908
     33 C         139.1652  140.2243  169.6040 C.1     1  UNL1        0.1002
     34 N         137.9245  139.8488  170.3588 N.1     1  UNL1       -0.1908
@<TRIPOS>BOND
     1     8     7    1
     2     8     9    1
     3     9    10    1
     4    10    14    1
     5    14    15   ar
     6    15    16   ar
     7    16    17   ar
     8    17    19    1
     9    19    20    1
    10    19    21    1
    11    19    22    1
    12    17    18   ar
    13    10    11    1
    14    11    12    1
    15    12    13    1
    16    13     1    1
    17     1     2   ar
    18     2     3   ar
    19     3     4   ar
    20     4    23    1
    21    23    24    1
    22    24    25    1
    23    25    26   ar
    24    26    27   ar
    25    27    28   ar
    26    28    31    1
    27    31    32    3
    28    28    29   ar
    29    29    30   ar
    30    30    33    1
    31    33    34    3
    32     4     5   ar
    33     5     6   ar
    34    13     8    1
    35     6     1   ar
    36    18    14   ar
    37    30    25   ar
@<TRIPOS>MOLECULE
*****
 34 37 0 0 0
SMALL
GASTEIGER

@<TRIPOS>ATOM
      1 C         139.1414  142.8176  160.4134 C.ar    1  UNL1        0.2204
      2 N         139.9818  141.6173  160.7342 N.ar    1  UNL1       -0.2089
      3 C         139.6940  140.8070  161.9632 C.ar    1  UNL1        0.1402
      4 C         138.5658  141.1970  162.8715 C.ar    1  UNL1        0.1773
      5 C         137.7254  142.3974  162.5507 C.ar    1  UNL1        0.1402
      6 N         138.0132  143.2077  161.3216 N.ar    1  UNL1       -0.2089
      7 C         140.6335  145.4103  160.6414 C.3     1  UNL1        0.0233
      8 C         140.1753  144.9242  159.2983 C.3     1  UNL1        0.0955
      9 C         140.4631  145.7345  158.0692 C.3     1  UNL1        0.1149
     10 N         140.0050  145.2484  156.7262 N.pl3   1  UNL1       -0.2590
     11 C         139.2590  143.9521  156.6122 C.3     1  UNL1        0.1166
     12 C         138.9711  143.1419  157.8412 C.3     1  UNL1        0.1151
     13 N         139.4293  143.6279  159.1843 N.pl3   1  UNL1       -0.2764
     14 C         140.2928  146.0587  155.4971 C.ar    1  UNL1        0.3120
     15 N         141.1336  145.6261  154.3327 N.ar    1  UNL1       -0.0922
     16 N         141.1509  146.7439  153.3326 N.ar    1  UNL1       -0.1018
     17 C         140.3207  147.8675  153.8790 C.ar    1  UNL1        0.3233
     18 O         139.7904  147.4440  155.2166 O.2     1  UNL1       -0.4012
     19 C         140.0656  149.1834  153.2058 C.3     1  UNL1        0.4711
     20 F         139.8105  150.4994  152.5326 F       1  UNL1       -0.1619
     21 F         141.0364  148.8175  152.1225 F       1  UNL1       -0.1619
     22 F         139.0947  149.5494  154.2890 F       1  UNL1       -0.1619
     23 O         138.2780  140.3867  164.1005 O.3     1  UNL1       -0.4675
     24 C         139.4089  139.8394  164.9199 C.3     1  UNL1        0.2328
     25 C         139.6258  140.3294  166.3209 C.ar    1  UNL1        0.0308
     26 C         139.1207  139.5265  167.4829 C.ar    1  UNL1        0.0007
     27 C         139.3375  140.0165  168.8839 C.ar    1  UNL1        0.0101
     28 C         140.0595  141.3094  169.1229 C.ar    1  UNL1        0.0691
     29 C         140.5646  142.1123  167.9610 C.ar    1  UNL1        0.0203
     30 C         140.3477  141.6223  166.5600 C.ar    1  UNL1        0.0686
     31 C         140.2763  141.7994  170.5239 C.1     1  UNL1        0.1004
     32 N         140.4932  142.2894  171.9250 N.1     1  UNL1       -0.1908
     33 C         140.8528  142.4252  165.3980 C.1     1  UNL1        0.1002
     34 N         141.3579  143.2282  164.2360 N.1     1  UNL1       -0.1908
@<TRIPOS>BOND
     1     8     7    1
     2     8     9    1
     3     9    10    1
     4    10    14    1
     5    14    15   ar
     6    15    16   ar
     7    16    17   ar
     8    17    19    1
     9    19    20    1
    10    19    21    1
    11    19    22    1
    12    17    18   ar
    13    10    11    1
    14    11    12    1
    15    12    13    1
    16    13     1    1
    17     1     2   ar
    18     2     3   ar
    19     3     4   ar
    20     4    23    1
    21    23    24    1
    22    24    25    1
    23    25    26   ar
    24    26    27   ar
    25    27    28   ar
    26    28    31    1
    27    31    32    3
    28    28    29   ar
    29    29    30   ar
    30    30    33    1
    31    33    34    3
    32     4     5   ar
    33     5     6   ar
    34    13     8    1
    35     6     1   ar
    36    18    14   ar
    37    30    25   ar
@<TRIPOS>MOLECULE
*****
 34 37 0 0 0
SMALL
GASTEIGER

@<TRIPOS>ATOM
      1 C         141.8154  141.8775  161.6392 C.ar    1  UNL1        0.2204
      2 N         143.2063  142.0215  162.1822 N.ar    1  UNL1       -0.2089
      3 C         143.6720  141.1326  163.2970 C.ar    1  UNL1        0.1402
      4 C         142.7468  140.0996  163.8690 C.ar    1  UNL1        0.1773
      5 C         141.3560  139.9555  163.3260 C.ar    1  UNL1        0.1402
      6 N         140.8903  140.8445  162.2111 N.ar    1  UNL1       -0.2089
      7 C         140.9272  144.6818  162.2281 C.3     1  UNL1        0.0233
      8 C         140.9056  144.1686  160.8188 C.3     1  UNL1        0.0955
      9 C         140.4400  145.0575  159.7039 C.3     1  UNL1        0.1149
     10 N         140.4185  144.5443  158.2946 N.pl3   1  UNL1       -0.2590
     11 C         140.8626  143.1422  158.0002 C.3     1  UNL1        0.1166
     12 C         141.3282  142.2533  159.1150 C.3     1  UNL1        0.1151
     13 N         141.3498  142.7665  160.5244 N.pl3   1  UNL1       -0.2764
     14 C         139.9528  145.4333  157.1797 C.ar    1  UNL1        0.3120
     15 N         139.7163  145.0151  155.7588 N.ar    1  UNL1       -0.0922
     16 N         139.2592  146.2199  154.9910 N.ar    1  UNL1       -0.1018
     17 C         139.2132  147.3828  155.9375 C.ar    1  UNL1        0.3233
     18 O         139.6418  146.8966  157.2902 O.2     1  UNL1       -0.4012
     19 C         138.8094  148.7854  155.5919 C.3     1  UNL1        0.4711
     20 F         138.4056  150.1881  155.2463 F       1  UNL1       -0.1619
     21 F         138.4086  149.0214  157.0179 F       1  UNL1       -0.1619
     22 F         139.2101  148.5494  154.1658 F       1  UNL1       -0.1619
     23 O         143.2125  139.2106  164.9838 O.3     1  UNL1       -0.4675
     24 C         142.3317  138.9780  166.1754 C.3     1  UNL1        0.2328
     25 C         141.8759  140.1387  167.0092 C.ar    1  UNL1        0.0308
     26 C         142.8856  141.0302  167.6693 C.ar    1  UNL1        0.0007
     27 C         142.4298  142.1909  168.5031 C.ar    1  UNL1        0.0101
     28 C         140.9644  142.4600  168.6768 C.ar    1  UNL1        0.0691
     29 C         139.9548  141.5684  168.0167 C.ar    1  UNL1        0.0203
     30 C         140.4105  140.4078  167.1829 C.ar    1  UNL1        0.0686
     31 C         140.5087  143.6206  169.5105 C.1     1  UNL1        0.1004
     32 N         140.0530  144.7813  170.3443 N.1     1  UNL1       -0.1908
     33 C         139.4008  139.5162  166.5228 C.1     1  UNL1        0.1002
     34 N         138.3912  138.6247  165.8627 N.1     1  UNL1       -0.1908
@<TRIPOS>BOND
     1     8     7    1
     2     8     9    1
     3     9    10    1
     4    10    14    1
     5    14    15   ar
     6    15    16   ar
     7    16    17   ar
     8    17    19    1
     9    19    20    1
    10    19    21    1
    11    19    22    1
    12    17    18   ar
    13    10    11    1
    14    11    12    1
    15    12    13    1
    16    13     1    1
    17     1     2   ar
    18     2     3   ar
    19     3     4   ar
    20     4    23    1
    21    23    24    1
    22    24    25    1
    23    25    26   ar
    24    26    27   ar
    25    27    28   ar
    26    28    31    1
    27    31    32    3
    28    28    29   ar
    29    29    30   ar
    30    30    33    1
    31    33    34    3
    32     4     5   ar
    33     5     6   ar
    34    13     8    1
    35     6     1   ar
    36    18    14   ar
    37    30    25   ar
@<TRIPOS>MOLECULE
*****
 34 37 0 0 0
SMALL
GASTEIGER

@<TRIPOS>ATOM
      1 C         140.9286  140.2286  161.8771 C.ar    1  UNL1        0.2204
      2 N         139.6918  139.8163  162.6191 N.ar    1  UNL1       -0.2089
      3 C         139.1693  140.6681  163.7377 C.ar    1  UNL1        0.1402
      4 C         139.8836  141.9323  164.1144 C.ar    1  UNL1        0.1773
      5 C         141.1203  142.3446  163.3725 C.ar    1  UNL1        0.1402
      6 N         141.6428  141.4927  162.2538 N.ar    1  UNL1       -0.2089
      7 C         142.9934  138.1243  162.4325 C.3     1  UNL1        0.0233
      8 C         142.4835  138.3247  161.0361 C.3     1  UNL1        0.0955
      9 C         143.0059  137.4729  159.9174 C.3     1  UNL1        0.1149
     10 N         142.4959  137.6732  158.5211 N.pl3   1  UNL1       -0.2590
     11 C         141.4635  138.7253  158.2434 C.3     1  UNL1        0.1166
     12 C         140.9411  139.5771  159.3620 C.3     1  UNL1        0.1151
     13 N         141.4511  139.3768  160.7584 N.pl3   1  UNL1       -0.2764
     14 C         143.0184  136.8213  157.4024 C.ar    1  UNL1        0.3120
     15 N         143.6713  137.3182  156.1467 N.ar    1  UNL1       -0.0922
     16 N         144.0361  136.1270  155.3113 N.ar    1  UNL1       -0.1018
     17 C         143.6087  134.8938  156.0507 C.ar    1  UNL1        0.3233
     18 O         142.9797  135.3230  157.3430 O.2     1  UNL1       -0.4012
     19 C         143.7801  133.4799  155.5803 C.3     1  UNL1        0.4711
     20 F         143.9516  132.0659  155.1099 F       1  UNL1       -0.1619
     21 F         144.5146  133.1480  156.8454 F       1  UNL1       -0.1619
     22 F         143.0457  133.8117  154.3152 F       1  UNL1       -0.1619
     23 O         139.3611  142.7841  165.2331 O.3     1  UNL1       -0.4675
     24 C         140.2427  143.1108  166.4018 C.3     1  UNL1        0.2328
     25 C         140.8475  142.0063  167.2168 C.ar    1  UNL1        0.0308
     26 C         139.9814  141.1815  168.1222 C.ar    1  UNL1        0.0007
     27 C         140.5864  140.0770  168.9372 C.ar    1  UNL1        0.0101
     28 C         142.0573  139.7974  168.8470 C.ar    1  UNL1        0.0691
     29 C         142.9233  140.6222  167.9417 C.ar    1  UNL1        0.0203
     30 C         142.3185  141.7266  167.1266 C.ar    1  UNL1        0.0686
     31 C         142.6621  138.6929  169.6620 C.1     1  UNL1        0.1004
     32 N         143.2669  137.5884  170.4771 N.1     1  UNL1       -0.1908
     33 C         143.1846  142.5515  166.2213 C.1     1  UNL1        0.1002
     34 N         144.0507  143.3763  165.3160 N.1     1  UNL1       -0.1908
@<TRIPOS>BOND
     1     8     7    1
     2     8     9    1
     3     9    10    1
     4    10    14    1
     5    14    15   ar
     6    15    16   ar
     7    16    17   ar
     8    17    19    1
     9    19    20    1
    10    19    21    1
    11    19    22    1
    12    17    18   ar
    13    10    11    1
    14    11    12    1
    15    12    13    1
    16    13     1    1
    17     1     2   ar
    18     2     3   ar
    19     3     4   ar
    20     4    23    1
    21    23    24    1
    22    24    25    1
    23    25    26   ar
    24    26    27   ar
    25    27    28   ar
    26    28    31    1
    27    31    32    3
    28    28    29   ar
    29    29    30   ar
    30    30    33    1
    31    33    34    3
    32     4     5   ar
    33     5     6   ar
    34    13     8    1
    35     6     1   ar
    36    18    14   ar
    37    30    25   ar
@<TRIPOS>MOLECULE
*****
 34 37 0 0 0
SMALL
GASTEIGER

@<TRIPOS>ATOM
      1 C         140.8815  138.5161  160.8593 C.ar    1  UNL1        0.2204
      2 N         142.2851  138.1554  160.4721 N.ar    1  UNL1       -0.2089
      3 C         142.6318  137.9340  159.0297 C.ar    1  UNL1        0.1402
      4 C         141.5750  138.0732  157.9743 C.ar    1  UNL1        0.1773
      5 C         140.1714  138.4339  158.3615 C.ar    1  UNL1        0.1402
      6 N         139.8247  138.6554  159.8040 N.ar    1  UNL1       -0.2089
      7 C         140.8563  141.2962  161.9864 C.3     1  UNL1        0.0233
      8 C         140.5222  140.1275  162.8654 C.3     1  UNL1        0.0955
      9 C         140.1756  140.3489  164.3078 C.3     1  UNL1        0.1149
     10 N         139.8415  139.1802  165.1868 N.pl3   1  UNL1       -0.2590
     11 C         139.8540  137.7901  164.6233 C.3     1  UNL1        0.1166
     12 C         140.2007  137.5688  163.1808 C.3     1  UNL1        0.1151
     13 N         140.5348  138.7375  162.3018 N.pl3   1  UNL1       -0.2764
     14 C         139.4948  139.4016  166.6293 C.ar    1  UNL1        0.3120
     15 N         138.2243  138.9792  167.3056 N.ar    1  UNL1       -0.0922
     16 N         138.3020  139.4008  168.7431 N.ar    1  UNL1       -0.1018
     17 C         139.6206  140.0838  168.9551 C.ar    1  UNL1        0.3233
     18 O         140.3577  140.0843  167.6488 O.2     1  UNL1       -0.4012
     19 C         140.1152  140.6644  170.2468 C.3     1  UNL1        0.4711
     20 F         140.6097  141.2449  171.5384 F       1  UNL1       -0.1619
     21 F         140.9531  139.4415  170.4756 F       1  UNL1       -0.1619
     22 F         139.2773  141.8873  170.0179 F       1  UNL1       -0.1619
     23 O         141.9217  137.8518  156.5319 O.3     1  UNL1       -0.4675
     24 C         143.0965  136.9939  156.1660 C.3     1  UNL1        0.2328
     25 C         142.9341  135.5067  156.0574 C.ar    1  UNL1        0.0308
     26 C         143.2605  134.6290  157.2292 C.ar    1  UNL1        0.0007
     27 C         143.0981  133.1417  157.1205 C.ar    1  UNL1        0.0101
     28 C         142.6095  132.5322  155.8401 C.ar    1  UNL1        0.0691
     29 C         142.2831  133.4099  154.6682 C.ar    1  UNL1        0.0203
     30 C         142.4455  134.8971  154.7769 C.ar    1  UNL1        0.0686
     31 C         142.4472  131.0450  155.7314 C.1     1  UNL1        0.1004
     32 N         142.2848  129.5577  155.6227 N.1     1  UNL1       -0.1908
     33 C         142.1191  135.7748  153.6050 C.1     1  UNL1        0.1002
     34 N         141.7928  136.6524  152.4332 N.1     1  UNL1       -0.1908
@<TRIPOS>BOND
     1     8     7    1
     2     8     9    1
     3     9    10    1
     4    10    14    1
     5    14    15   ar
     6    15    16   ar
     7    16    17   ar
     8    17    19    1
     9    19    20    1
    10    19    21    1
    11    19    22    1
    12    17    18   ar
    13    10    11    1
    14    11    12    1
    15    12    13    1
    16    13     1    1
    17     1     2   ar
    18     2     3   ar
    19     3     4   ar
    20     4    23    1
    21    23    24    1
    22    24    25    1
    23    25    26   ar
    24    26    27   ar
    25    27    28   ar
    26    28    31    1
    27    31    32    3
    28    28    29   ar
    29    29    30   ar
    30    30    33    1
    31    33    34    3
    32     4     5   ar
    33     5     6   ar
    34    13     8    1
    35     6     1   ar
    36    18    14   ar
    37    30    25   ar
@<TRIPOS>MOLECULE
*****
 34 37 0 0 0
SMALL
GASTEIGER

@<TRIPOS>ATOM
      1 C         141.1573  141.4368  159.2396 C.ar    1  UNL1        0.2204
      2 N         142.0870  142.6133  159.2020 N.ar    1  UNL1       -0.2089
      3 C         141.6325  143.9452  159.7212 C.ar    1  UNL1        0.1402
      4 C         140.2483  144.1005  160.2780 C.ar    1  UNL1        0.1773
      5 C         139.3187  142.9239  160.3156 C.ar    1  UNL1        0.1402
      6 N         139.7732  141.5920  159.7963 N.ar    1  UNL1       -0.2089
      7 C         142.4984  139.4864  161.0828 C.3     1  UNL1        0.0233
      8 C         142.2824  139.1297  159.6419 C.3     1  UNL1        0.0955
      9 C         142.7369  137.7979  159.1227 C.3     1  UNL1        0.1149
     10 N         142.5209  137.4413  157.6818 N.pl3   1  UNL1       -0.2590
     11 C         141.8503  138.4164  156.7602 C.3     1  UNL1        0.1166
     12 C         141.3958  139.7482  157.2794 C.3     1  UNL1        0.1151
     13 N         141.6119  140.1049  158.7203 N.pl3   1  UNL1       -0.2764
     14 C         142.9754  136.1094  157.1625 C.ar    1  UNL1        0.3120
     15 N         143.1258  135.7305  155.7190 N.ar    1  UNL1       -0.0922
     16 N         143.6027  134.3095  155.6600 N.ar    1  UNL1       -0.1018
     17 C         143.7470  133.8102  157.0671 C.ar    1  UNL1        0.3233
     18 O         143.3593  134.9226  157.9957 O.2     1  UNL1       -0.4012
     19 C         144.1995  132.4392  157.4741 C.3     1  UNL1        0.4711
     20 F         144.6521  131.0683  157.8812 F       1  UNL1       -0.1619
     21 F         143.0695  131.8348  156.6947 F       1  UNL1       -0.1619
     22 F         145.3296  133.0437  158.2536 F       1  UNL1       -0.1619
     23 O         139.7938  145.4323  160.7973 O.3     1  UNL1       -0.4675
     24 C         140.2208  145.8914  162.1600 C.3     1  UNL1        0.2328
     25 C         140.1832  144.9391  163.3182 C.ar    1  UNL1        0.0308
     26 C         138.8753  144.6046  163.9720 C.ar    1  UNL1        0.0007
     27 C         138.8377  143.6522  165.1303 C.ar    1  UNL1        0.0101
     28 C         140.1080  143.0343  165.6347 C.ar    1  UNL1        0.0691
     29 C         141.4159  143.3688  164.9809 C.ar    1  UNL1        0.0203
     30 C         141.4535  144.3211  163.8227 C.ar    1  UNL1        0.0686
     31 C         140.0704  142.0820  166.7930 C.1     1  UNL1        0.1004
     32 N         140.0328  141.1295  167.9512 N.1     1  UNL1       -0.1908
     33 C         142.7614  144.6556  163.1688 C.1     1  UNL1        0.1002
     34 N         144.0694  144.9900  162.5150 N.1     1  UNL1       -0.1908
@<TRIPOS>BOND
     1     8     7    1
     2     8     9    1
     3     9    10    1
     4    10    14    1
     5    14    15   ar
     6    15    16   ar
     7    16    17   ar
     8    17    19    1
     9    19    20    1
    10    19    21    1
    11    19    22    1
    12    17    18   ar
    13    10    11    1
    14    11    12    1
    15    12    13    1
    16    13     1    1
    17     1     2   ar
    18     2     3   ar
    19     3     4   ar
    20     4    23    1
    21    23    24    1
    22    24    25    1
    23    25    26   ar
    24    26    27   ar
    25    27    28   ar
    26    28    31    1
    27    31    32    3
    28    28    29   ar
    29    29    30   ar
    30    30    33    1
    31    33    34    3
    32     4     5   ar
    33     5     6   ar
    34    13     8    1
    35     6     1   ar
    36    18    14   ar
    37    30    25   ar
@<TRIPOS>MOLECULE
*****
 34 37 0 0 0
SMALL
GASTEIGER

@<TRIPOS>ATOM
      1 C         141.4859  141.7875  161.7818 C.ar    1  UNL1        0.2204
      2 N         140.4871  141.4820  162.8584 N.ar    1  UNL1       -0.2089
      3 C         140.8454  140.5384  163.9680 C.ar    1  UNL1        0.1402
      4 C         142.2025  139.9003  164.0010 C.ar    1  UNL1        0.1773
      5 C         143.2013  140.2057  162.9244 C.ar    1  UNL1        0.1402
      6 N         142.8430  141.1494  161.8148 N.ar    1  UNL1       -0.2089
      7 C         141.9129  144.7371  162.1243 C.3     1  UNL1        0.0233
      8 C         141.3411  144.2059  160.8434 C.3     1  UNL1        0.0955
      9 C         140.9827  145.1494  159.7338 C.3     1  UNL1        0.1149
     10 N         140.4109  144.6181  158.4528 N.pl3   1  UNL1       -0.2590
     11 C         140.1974  143.1433  158.2815 C.3     1  UNL1        0.1166
     12 C         140.5557  142.1998  159.3912 C.3     1  UNL1        0.1151
     13 N         141.1276  142.7311  160.6721 N.pl3   1  UNL1       -0.2764
     14 C         140.0526  145.5617  157.3432 C.ar    1  UNL1        0.3120
     15 N         140.1886  145.2881  155.8747 N.ar    1  UNL1       -0.0922
     16 N         139.7154  146.5019  155.1312 N.ar    1  UNL1       -0.1018
     17 C         139.2868  147.5257  156.1402 C.ar    1  UNL1        0.3233
     18 O         139.4952  146.9447  157.5073 O.2     1  UNL1       -0.4012
     19 C         138.7450  148.8909  155.8356 C.3     1  UNL1        0.4711
     20 F         138.2032  150.2560  155.5311 F       1  UNL1       -0.1619
     21 F         138.2632  149.0154  157.2507 F       1  UNL1       -0.1619
     22 F         139.2269  148.7664  154.4206 F       1  UNL1       -0.1619
     23 O         142.5608  138.9567  165.1106 O.3     1  UNL1       -0.4675
     24 C         143.2017  139.4794  166.3621 C.3     1  UNL1        0.2328
     25 C         142.3907  140.2686  167.3467 C.ar    1  UNL1        0.0308
     26 C         141.5340  139.5586  168.3526 C.ar    1  UNL1        0.0007
     27 C         140.7230  140.3478  169.3373 C.ar    1  UNL1        0.0101
     28 C         140.7688  141.8470  169.3161 C.ar    1  UNL1        0.0691
     29 C         141.6256  142.5569  168.3102 C.ar    1  UNL1        0.0203
     30 C         142.4366  141.7678  167.3255 C.ar    1  UNL1        0.0686
     31 C         139.9579  142.6361  170.3007 C.1     1  UNL1        0.1004
     32 N         139.1469  143.4253  171.2854 N.1     1  UNL1       -0.1908
     33 C         143.2933  142.4778  166.3196 C.1     1  UNL1        0.1002
     34 N         144.1501  143.1877  165.3137 N.1     1  UNL1       -0.1908
@<TRIPOS>BOND
     1     8     7    1
     2     8     9    1
     3     9    10    1
     4    10    14    1
     5    14    15   ar
     6    15    16   ar
     7    16    17   ar
     8    17    19    1
     9    19    20    1
    10    19    21    1
    11    19    22    1
    12    17    18   ar
    13    10    11    1
    14    11    12    1
    15    12    13    1
    16    13     1    1
    17     1     2   ar
    18     2     3   ar
    19     3     4   ar
    20     4    23    1
    21    23    24    1
    22    24    25    1
    23    25    26   ar
    24    26    27   ar
    25    27    28   ar
    26    28    31    1
    27    31    32    3
    28    28    29   ar
    29    29    30   ar
    30    30    33    1
    31    33    34    3
    32     4     5   ar
    33     5     6   ar
    34    13     8    1
    35     6     1   ar
    36    18    14   ar
    37    30    25   ar
