@<TRIPOS>MOLECULE
*****
 39 44 0 0 0
SMALL
GASTEIGER

@<TRIPOS>ATOM
      1 C         137.8817  140.0908  162.0259 C.3     1  UNL1        0.0570
      2 C         137.6816  140.3965  163.4806 C.3     1  UNL1        0.0331
      3 C         137.6686  141.8202  163.9530 C.3     1  UNL1        0.0735
      4 N         137.8558  142.9381  162.9705 N.3     1  UNL1       -0.2711
      5 C         138.0559  142.6323  161.5157 C.3     1  UNL1        0.0735
      6 C         138.0689  141.2087  161.0434 C.3     1  UNL1        0.0331
      7 N         137.8947  138.6672  161.5536 N.3     1  UNL1       -0.2934
      8 H         137.4698  138.1077  162.2931 H       1  UNL1        0.1236
      9 C         139.1942  138.0053  161.2023 C.3     1  UNL1        0.1152
     10 O         145.9105  141.6813  162.6612 O.2     1  UNL1       -0.2707
     11 C         144.8775  140.6628  163.0429 C.2     1  UNL1        0.2718
     12 C         145.0502  139.8512  164.2925 C.3     1  UNL1        0.2898
     13 O         144.0172  138.8328  164.6741 O.3     1  UNL1       -0.4628
     14 C         142.8115  138.6259  163.8062 C.ar    1  UNL1        0.1708
     15 C         141.7785  137.6075  164.1878 C.ar    1  UNL1        0.0411
     16 C         140.5727  137.4006  163.3199 C.ar    1  UNL1        0.0193
     17 C         140.3999  138.2122  162.0702 C.ar    1  UNL1        0.0765
     18 N         141.4329  139.2306  161.6886 N.ar    1  UNL1       -0.2304
     19 C         142.6387  139.4375  162.5566 C.ar    1  UNL1        0.1682
     20 N         143.6717  140.4559  162.1750 N.am    1  UNL1       -0.2639
     21 H         143.5584  140.9886  161.3548 H       1  UNL1        0.1565
     22 C         137.8428  144.3617  163.4428 C.3     1  UNL1        0.0942
     23 C         138.8901  144.8430  164.4027 C.3     1  UNL1        0.1157
     24 N         140.3275  144.4677  164.1946 N.am    1  UNL1       -0.2515
     25 C         141.0947  145.0469  163.0431 C.2     1  UNL1        0.2740
     26 O         140.4244  146.0013  162.0996 O.2     1  UNL1       -0.2705
     27 C         142.5320  144.6718  162.8349 C.3     1  UNL1        0.2900
     28 O         143.2022  143.7174  163.7784 O.3     1  UNL1       -0.4643
     29 C         142.4350  143.1382  164.9299 C.ar    1  UNL1        0.1529
     30 C         143.1052  142.1838  165.8733 C.ar    1  UNL1        0.0398
     31 C         142.3380  141.6046  167.0249 C.ar    1  UNL1        0.0225
     32 C         140.9007  141.9798  167.2330 C.ar    1  UNL1        0.0877
     33 C         140.2305  142.9342  166.2895 C.ar    1  UNL1        0.0372
     34 C         140.9977  143.5134  165.1380 C.ar    1  UNL1        0.0897
     35 N         140.1336  141.4006  168.3845 N.ar    1  UNL1       -0.1885
     36 C         139.9498  142.0367  169.7305 C.ar    1  UNL1        0.2258
     37 N         139.1182  141.1129  170.5701 N.ar    1  UNL1       -0.1045
     38 N         138.7879  139.9058  169.7430 N.ar    1  UNL1       -0.0222
     39 N         139.4155  140.0836  168.3922 N.ar    1  UNL1       -0.0385
@<TRIPOS>BOND
     1    10    11    2
     2    11    12    1
     3    12    13    1
     4    13    14    1
     5    14    15   ar
     6    15    16   ar
     7    16    17   ar
     8    17     9    1
     9     9     7    1
    10     7     1    1
    11     1     2    1
    12     2     3    1
    13     3     4    1
    14     4    22    1
    15    22    23    1
    16    23    24    1
    17    24    25   am
    18    25    26    2
    19    25    27    1
    20    27    28    1
    21    28    29    1
    22    29    30   ar
    23    30    31   ar
    24    31    32   ar
    25    32    35    1
    26    35    36   ar
    27    36    37   ar
    28    37    38   ar
    29    38    39   ar
    30    32    33   ar
    31    33    34   ar
    32     4     5    1
    33     5     6    1
    34    17    18   ar
    35    18    19   ar
    36    19    20    1
    37    20    11   am
    38    19    14   ar
    39     6     1    1
    40    34    24    1
    41    34    29   ar
    42    39    35   ar
    43     7     8    1
    44    20    21    1
@<TRIPOS>MOLECULE
*****
 39 44 0 0 0
SMALL
GASTEIGER

@<TRIPOS>ATOM
      1 C         142.3693  138.3456  162.4896 C.3     1  UNL1        0.0570
      2 C         142.9147  139.2881  161.4580 C.3     1  UNL1        0.0331
      3 C         143.9982  140.2579  161.8263 C.3     1  UNL1        0.0735
      4 N         144.5364  140.2850  163.2261 N.3     1  UNL1       -0.2711
      5 C         143.9910  139.3425  164.2577 C.3     1  UNL1        0.0735
      6 C         142.9075  138.3728  163.8895 C.3     1  UNL1        0.0331
      7 N         141.2858  137.3759  162.1213 N.3     1  UNL1       -0.2934
      8 H         141.6207  136.8537  161.3116 H       1  UNL1        0.1236
      9 C         139.9153  137.8783  161.7759 C.3     1  UNL1        0.1152
     10 O         138.3931  145.5160  162.0899 O.2     1  UNL1       -0.2707
     11 C         138.3300  144.1522  162.7113 C.2     1  UNL1        0.2718
     12 C         137.6964  143.9705  164.0587 C.3     1  UNL1        0.2898
     13 O         137.6332  142.6067  164.6800 O.3     1  UNL1       -0.4628
     14 C         138.2037  141.4246  163.9540 C.ar    1  UNL1        0.1708
     15 C         138.1406  140.0608  164.5754 C.ar    1  UNL1        0.0411
     16 C         138.7111  138.8787  163.8493 C.ar    1  UNL1        0.0193
     17 C         139.3448  139.0604  162.5019 C.ar    1  UNL1        0.0765
     18 N         139.4079  140.4242  161.8805 N.ar    1  UNL1       -0.2304
     19 C         138.8374  141.6063  162.6066 C.ar    1  UNL1        0.1682
     20 N         138.9005  142.9701  161.9853 N.am    1  UNL1       -0.2639
     21 H         139.3164  143.0893  161.1009 H       1  UNL1        0.1565
     22 C         145.6199  141.2547  163.5944 C.3     1  UNL1        0.0942
     23 C         145.2838  142.4988  164.3621 C.3     1  UNL1        0.1157
     24 N         143.8959  143.0649  164.3025 N.am    1  UNL1       -0.2515
     25 C         143.5067  143.9797  163.1793 C.2     1  UNL1        0.2740
     26 O         144.5053  144.3284  162.1156 O.2     1  UNL1       -0.2705
     27 C         142.1189  144.5458  163.1196 C.3     1  UNL1        0.2900
     28 O         141.1203  144.1972  164.1833 O.3     1  UNL1       -0.4643
     29 C         141.5095  143.2824  165.3065 C.ar    1  UNL1        0.1529
     30 C         140.5110  142.9337  166.3701 C.ar    1  UNL1        0.0398
     31 C         140.9003  142.0189  167.4934 C.ar    1  UNL1        0.0225
     32 C         142.2880  141.4528  167.5530 C.ar    1  UNL1        0.0877
     33 C         143.2866  141.8014  166.4893 C.ar    1  UNL1        0.0372
     34 C         142.8974  142.7162  165.3661 C.ar    1  UNL1        0.0897
     35 N         142.6772  140.5380  168.6762 N.ar    1  UNL1       -0.1885
     36 C         143.1173  140.9616  170.0462 C.ar    1  UNL1        0.2258
     37 N         143.4068  139.7244  170.8434 N.ar    1  UNL1       -0.1045
     38 N         143.1456  138.5360  169.9661 N.ar    1  UNL1       -0.0222
     39 N         142.6947  139.0388  168.6266 N.ar    1  UNL1       -0.0385
@<TRIPOS>BOND
     1    10    11    2
     2    11    12    1
     3    12    13    1
     4    13    14    1
     5    14    15   ar
     6    15    16   ar
     7    16    17   ar
     8    17     9    1
     9     9     7    1
    10     7     1    1
    11     1     2    1
    12     2     3    1
    13     3     4    1
    14     4    22    1
    15    22    23    1
    16    23    24    1
    17    24    25   am
    18    25    26    2
    19    25    27    1
    20    27    28    1
    21    28    29    1
    22    29    30   ar
    23    30    31   ar
    24    31    32   ar
    25    32    35    1
    26    35    36   ar
    27    36    37   ar
    28    37    38   ar
    29    38    39   ar
    30    32    33   ar
    31    33    34   ar
    32     4     5    1
    33     5     6    1
    34    17    18   ar
    35    18    19   ar
    36    19    20    1
    37    20    11   am
    38    19    14   ar
    39     6     1    1
    40    34    24    1
    41    34    29   ar
    42    39    35   ar
    43     7     8    1
    44    20    21    1
@<TRIPOS>MOLECULE
*****
 39 44 0 0 0
SMALL
GASTEIGER

@<TRIPOS>ATOM
      1 C         139.9734  143.9954  162.2458 C.3     1  UNL1        0.0570
      2 C         140.0838  144.2425  163.7211 C.3     1  UNL1        0.0331
      3 C         141.4340  144.3872  164.3584 C.3     1  UNL1        0.0735
      4 N         142.6738  144.2848  163.5203 N.3     1  UNL1       -0.2711
      5 C         142.5634  144.0376  162.0449 C.3     1  UNL1        0.0735
      6 C         141.2132  143.8929  161.4077 C.3     1  UNL1        0.0331
      7 N         138.6233  143.8507  161.6085 N.3     1  UNL1       -0.2934
      8 H         137.9340  144.0879  162.3220 H       1  UNL1        0.1236
      9 C         138.2066  142.5330  161.0251 C.3     1  UNL1        0.1152
     10 O         137.7599  138.6759  167.7832 O.2     1  UNL1       -0.2707
     11 C         138.0922  138.6999  166.3207 C.2     1  UNL1        0.2718
     12 C         138.6078  137.4621  165.6483 C.3     1  UNL1        0.2898
     13 O         138.9401  137.4861  164.1858 O.3     1  UNL1       -0.4628
     14 C         138.7567  138.7478  163.3956 C.ar    1  UNL1        0.1708
     15 C         139.0890  138.7718  161.9331 C.ar    1  UNL1        0.0411
     16 C         138.9056  140.0335  161.1429 C.ar    1  UNL1        0.0193
     17 C         138.3900  141.2713  161.8153 C.ar    1  UNL1        0.0765
     18 N         138.0577  141.2473  163.2778 N.ar    1  UNL1       -0.2304
     19 C         138.2411  139.9855  164.0680 C.ar    1  UNL1        0.1682
     20 N         137.9088  139.9616  165.5305 N.am    1  UNL1       -0.2639
     21 H         137.5704  140.7739  165.9718 H       1  UNL1        0.1565
     22 C         144.0239  144.4295  164.1576 C.3     1  UNL1        0.0942
     23 C         144.4737  143.4428  165.1939 C.3     1  UNL1        0.1157
     24 N         144.1823  141.9822  165.0154 N.am    1  UNL1       -0.2515
     25 C         144.8395  141.2165  163.9055 C.2     1  UNL1        0.2740
     26 O         145.7881  141.9115  162.9742 O.2     1  UNL1       -0.2705
     27 C         144.5482  139.7560  163.7269 C.3     1  UNL1        0.2900
     28 O         143.5996  139.0611  164.6582 O.3     1  UNL1       -0.4643
     29 C         142.9424  139.8267  165.7681 C.ar    1  UNL1        0.1529
     30 C         141.9938  139.1318  166.6993 C.ar    1  UNL1        0.0398
     31 C         141.3366  139.8975  167.8092 C.ar    1  UNL1        0.0225
     32 C         141.6279  141.3580  167.9878 C.ar    1  UNL1        0.0877
     33 C         142.5765  142.0530  167.0565 C.ar    1  UNL1        0.0372
     34 C         143.2338  141.2873  165.9466 C.ar    1  UNL1        0.0897
     35 N         140.9707  142.1236  169.0977 N.ar    1  UNL1       -0.1885
     36 C         140.6425  141.5923  170.4615 C.ar    1  UNL1        0.2258
     37 N         139.9952  142.6953  171.2454 N.ar    1  UNL1       -0.1045
     38 N         139.9235  143.9084  170.3661 N.ar    1  UNL1       -0.0222
     39 N         140.5264  143.5552  169.0387 N.ar    1  UNL1       -0.0385
@<TRIPOS>BOND
     1    10    11    2
     2    11    12    1
     3    12    13    1
     4    13    14    1
     5    14    15   ar
     6    15    16   ar
     7    16    17   ar
     8    17     9    1
     9     9     7    1
    10     7     1    1
    11     1     2    1
    12     2     3    1
    13     3     4    1
    14     4    22    1
    15    22    23    1
    16    23    24    1
    17    24    25   am
    18    25    26    2
    19    25    27    1
    20    27    28    1
    21    28    29    1
    22    29    30   ar
    23    30    31   ar
    24    31    32   ar
    25    32    35    1
    26    35    36   ar
    27    36    37   ar
    28    37    38   ar
    29    38    39   ar
    30    32    33   ar
    31    33    34   ar
    32     4     5    1
    33     5     6    1
    34    17    18   ar
    35    18    19   ar
    36    19    20    1
    37    20    11   am
    38    19    14   ar
    39     6     1    1
    40    34    24    1
    41    34    29   ar
    42    39    35   ar
    43     7     8    1
    44    20    21    1
@<TRIPOS>MOLECULE
*****
 39 44 0 0 0
SMALL
GASTEIGER

@<TRIPOS>ATOM
      1 C         137.8791  140.2783  163.4816 C.3     1  UNL1        0.0570
      2 C         138.6022  139.5781  162.3695 C.3     1  UNL1        0.0331
      3 C         139.6321  138.5340  162.6849 C.3     1  UNL1        0.0735
      4 N         139.9388  138.1902  164.1124 N.3     1  UNL1       -0.2711
      5 C         139.2156  138.8905  165.2245 C.3     1  UNL1        0.0735
      6 C         138.1858  139.9345  164.9091 C.3     1  UNL1        0.0331
      7 N         136.8493  141.3223  163.1662 N.3     1  UNL1       -0.2934
      8 H         136.1718  140.8877  162.5397 H       1  UNL1        0.1236
      9 C         137.2630  142.6149  162.5274 C.3     1  UNL1        0.1152
     10 O         144.9204  143.7720  161.6466 O.2     1  UNL1       -0.2707
     11 C         143.6373  144.0617  162.3676 C.2     1  UNL1        0.2718
     12 C         143.6235  145.0266  163.5159 C.3     1  UNL1        0.2898
     13 O         142.3404  145.3163  164.2368 O.3     1  UNL1       -0.4628
     14 C         141.0710  144.6410  163.8095 C.ar    1  UNL1        0.1708
     15 C         139.7879  144.9306  164.5304 C.ar    1  UNL1        0.0411
     16 C         138.5186  144.2553  164.1031 C.ar    1  UNL1        0.0193
     17 C         138.5323  143.2902  162.9547 C.ar    1  UNL1        0.0765
     18 N         139.8154  143.0006  162.2338 N.ar    1  UNL1       -0.2304
     19 C         141.0848  143.6760  162.6612 C.ar    1  UNL1        0.1682
     20 N         142.3679  143.3863  161.9402 N.am    1  UNL1       -0.2639
     21 H         142.3769  142.7530  161.1866 H       1  UNL1        0.1565
     22 C         140.9686  137.1462  164.4277 C.3     1  UNL1        0.0942
     23 C         142.2748  137.5446  165.0482 C.3     1  UNL1        0.1157
     24 N         142.8772  138.8821  164.7345 N.am    1  UNL1       -0.2515
     25 C         143.5743  139.1020  163.4247 C.2     1  UNL1        0.2740
     26 O         143.6691  137.9844  162.4286 O.2     1  UNL1       -0.2705
     27 C         144.1767  140.4394  163.1110 C.3     1  UNL1        0.2900
     28 O         144.0819  141.5570  164.1071 O.3     1  UNL1       -0.4643
     29 C         143.3847  141.3370  165.4169 C.ar    1  UNL1        0.1529
     30 C         143.2899  142.4545  166.4130 C.ar    1  UNL1        0.0398
     31 C         142.5927  142.2346  167.7228 C.ar    1  UNL1        0.0225
     32 C         141.9904  140.8972  168.0365 C.ar    1  UNL1        0.0877
     33 C         142.0852  139.7796  167.0404 C.ar    1  UNL1        0.0372
     34 C         142.7824  139.9995  165.7306 C.ar    1  UNL1        0.0897
     35 N         141.2932  140.6772  169.3463 N.ar    1  UNL1       -0.1885
     36 C         141.6639  141.3026  170.6584 C.ar    1  UNL1        0.2258
     37 N         140.7027  140.8052  171.6970 N.ar    1  UNL1       -0.1045
     38 N         139.7380  139.8724  171.0268 N.ar    1  UNL1       -0.0222
     39 N         140.1029  139.7932  169.5740 N.ar    1  UNL1       -0.0385
@<TRIPOS>BOND
     1    10    11    2
     2    11    12    1
     3    12    13    1
     4    13    14    1
     5    14    15   ar
     6    15    16   ar
     7    16    17   ar
     8    17     9    1
     9     9     7    1
    10     7     1    1
    11     1     2    1
    12     2     3    1
    13     3     4    1
    14     4    22    1
    15    22    23    1
    16    23    24    1
    17    24    25   am
    18    25    26    2
    19    25    27    1
    20    27    28    1
    21    28    29    1
    22    29    30   ar
    23    30    31   ar
    24    31    32   ar
    25    32    35    1
    26    35    36   ar
    27    36    37   ar
    28    37    38   ar
    29    38    39   ar
    30    32    33   ar
    31    33    34   ar
    32     4     5    1
    33     5     6    1
    34    17    18   ar
    35    18    19   ar
    36    19    20    1
    37    20    11   am
    38    19    14   ar
    39     6     1    1
    40    34    24    1
    41    34    29   ar
    42    39    35   ar
    43     7     8    1
    44    20    21    1
@<TRIPOS>MOLECULE
*****
 39 44 0 0 0
SMALL
GASTEIGER

@<TRIPOS>ATOM
      1 C         144.3549  139.8152  163.3797 C.3     1  UNL1        0.0570
      2 C         144.0842  139.6514  164.8459 C.3     1  UNL1        0.0331
      3 C         142.8733  138.8942  165.3050 C.3     1  UNL1        0.0735
      4 N         141.9333  138.3009  164.2978 N.3     1  UNL1       -0.2711
      5 C         142.2042  138.4648  162.8315 C.3     1  UNL1        0.0735
      6 C         143.4149  139.2219  162.3725 C.3     1  UNL1        0.0331
      7 N         145.5657  140.5723  162.9206 N.3     1  UNL1       -0.2934
      8 H         146.3756  140.1135  163.3378 H       1  UNL1        0.1236
      9 C         145.6940  142.0360  163.2225 C.3     1  UNL1        0.1152
     10 O         140.2319  145.4931  158.8678 O.2     1  UNL1       -0.2707
     11 C         140.8552  145.2373  160.2079 C.2     1  UNL1        0.2718
     12 C         140.2811  145.8780  161.4367 C.3     1  UNL1        0.2898
     13 O         140.9045  145.6222  162.7768 O.3     1  UNL1       -0.4628
     14 C         142.1018  144.7257  162.8883 C.ar    1  UNL1        0.1708
     15 C         142.7251  144.4699  164.2284 C.ar    1  UNL1        0.0411
     16 C         143.9225  143.5734  164.3398 C.ar    1  UNL1        0.0193
     17 C         144.4967  142.9326  163.1110 C.ar    1  UNL1        0.0765
     18 N         143.8733  143.1884  161.7709 N.ar    1  UNL1       -0.2304
     19 C         142.6759  144.0850  161.6595 C.ar    1  UNL1        0.1682
     20 N         142.0526  144.3408  160.3193 N.am    1  UNL1       -0.2639
     21 H         142.4294  143.9202  159.5129 H       1  UNL1        0.1565
     22 C         140.7226  137.5438  164.7568 C.3     1  UNL1        0.0942
     23 C         139.4802  138.2850  165.1530 C.3     1  UNL1        0.1157
     24 N         138.9989  139.4391  164.3243 N.am    1  UNL1       -0.2515
     25 C         138.3243  139.1876  163.0084 C.2     1  UNL1        0.2740
     26 O         138.1310  137.7821  162.5212 O.2     1  UNL1       -0.2705
     27 C         137.8430  140.3415  162.1797 C.3     1  UNL1        0.2900
     28 O         138.0363  141.7470  162.6670 O.3     1  UNL1       -0.4643
     29 C         138.7109  141.9985  163.9829 C.ar    1  UNL1        0.1529
     30 C         138.9042  143.4039  164.4702 C.ar    1  UNL1        0.0398
     31 C         139.5788  143.6553  165.7861 C.ar    1  UNL1        0.0225
     32 C         140.0601  142.5014  166.6148 C.ar    1  UNL1        0.0877
     33 C         139.8668  141.0959  166.1275 C.ar    1  UNL1        0.0372
     34 C         139.1922  140.8445  164.8116 C.ar    1  UNL1        0.0897
     35 N         140.7347  142.7529  167.9307 N.ar    1  UNL1       -0.1885
     36 C         142.0754  142.2261  168.3491 C.ar    1  UNL1        0.2258
     37 N         142.3564  142.7229  169.7363 N.ar    1  UNL1       -0.1045
     38 N         141.1894  143.5568  170.1752 N.ar    1  UNL1       -0.0222
     39 N         140.1871  143.5753  169.0593 N.ar    1  UNL1       -0.0385
@<TRIPOS>BOND
     1    10    11    2
     2    11    12    1
     3    12    13    1
     4    13    14    1
     5    14    15   ar
     6    15    16   ar
     7    16    17   ar
     8    17     9    1
     9     9     7    1
    10     7     1    1
    11     1     2    1
    12     2     3    1
    13     3     4    1
    14     4    22    1
    15    22    23    1
    16    23    24    1
    17    24    25   am
    18    25    26    2
    19    25    27    1
    20    27    28    1
    21    28    29    1
    22    29    30   ar
    23    30    31   ar
    24    31    32   ar
    25    32    35    1
    26    35    36   ar
    27    36    37   ar
    28    37    38   ar
    29    38    39   ar
    30    32    33   ar
    31    33    34   ar
    32     4     5    1
    33     5     6    1
    34    17    18   ar
    35    18    19   ar
    36    19    20    1
    37    20    11   am
    38    19    14   ar
    39     6     1    1
    40    34    24    1
    41    34    29   ar
    42    39    35   ar
    43     7     8    1
    44    20    21    1
@<TRIPOS>MOLECULE
*****
 39 44 0 0 0
SMALL
GASTEIGER

@<TRIPOS>ATOM
      1 C         137.8369  142.9170  162.6554 C.3     1  UNL1        0.0570
      2 C         137.7619  142.2668  164.0051 C.3     1  UNL1        0.0331
      3 C         137.9321  140.7819  164.1328 C.3     1  UNL1        0.0735
      4 N         138.1774  139.9473  162.9108 N.3     1  UNL1       -0.2711
      5 C         138.2523  140.5976  161.5611 C.3     1  UNL1        0.0735
      6 C         138.0821  142.0824  161.4334 C.3     1  UNL1        0.0331
      7 N         137.6666  144.4018  162.5278 N.3     1  UNL1       -0.2934
      8 H         137.3271  144.5791  161.5824 H       1  UNL1        0.1236
      9 C         138.8387  145.3125  162.7448 C.3     1  UNL1        0.1152
     10 O         144.9982  142.4996  158.8850 O.2     1  UNL1       -0.2707
     11 C         144.3374  142.8794  160.1770 C.2     1  UNL1        0.2718
     12 C         145.0690  142.7014  161.4743 C.3     1  UNL1        0.2898
     13 O         144.4082  143.0812  162.7662 O.3     1  UNL1       -0.4628
     14 C         143.0159  143.6390  162.7609 C.ar    1  UNL1        0.1708
     15 C         142.3551  144.0189  164.0528 C.ar    1  UNL1        0.0411
     16 C         140.9627  144.5767  164.0475 C.ar    1  UNL1        0.0193
     17 C         140.2310  144.7547  162.7501 C.ar    1  UNL1        0.0765
     18 N         140.8918  144.3749  161.4582 N.ar    1  UNL1       -0.2304
     19 C         142.2843  143.8170  161.4636 C.ar    1  UNL1        0.1682
     20 N         142.9450  143.4372  160.1716 N.am    1  UNL1       -0.2639
     21 H         142.4648  143.5541  159.3202 H       1  UNL1        0.1565
     22 C         138.3476  138.4625  163.0384 C.3     1  UNL1        0.0942
     23 C         139.5845  137.9015  163.6750 C.3     1  UNL1        0.1157
     24 N         140.8676  138.6773  163.6331 N.am    1  UNL1       -0.2515
     25 C         141.6550  138.7563  162.3589 C.2     1  UNL1        0.2740
     26 O         141.1593  138.0593  161.1265 O.2     1  UNL1       -0.2705
     27 C         142.9381  139.5321  162.3169 C.3     1  UNL1        0.2900
     28 O         143.4338  140.2291  163.5492 O.3     1  UNL1       -0.4643
     29 C         142.6463  140.1501  164.8235 C.ar    1  UNL1        0.1529
     30 C         143.1420  140.8471  166.0558 C.ar    1  UNL1        0.0398
     31 C         142.3545  140.7682  167.3301 C.ar    1  UNL1        0.0225
     32 C         141.0715  139.9923  167.3720 C.ar    1  UNL1        0.0877
     33 C         140.5758  139.2954  166.1397 C.ar    1  UNL1        0.0372
     34 C         141.3632  139.3743  164.8654 C.ar    1  UNL1        0.0897
     35 N         140.2841  139.9134  168.6463 N.ar    1  UNL1       -0.1885
     36 C         140.8520  139.9038  170.0346 C.ar    1  UNL1        0.2258
     37 N         139.7094  139.8147  171.0023 N.ar    1  UNL1       -0.1045
     38 N         138.4352  139.7692  170.2121 N.ar    1  UNL1       -0.0222
     39 N         138.7903  139.8302  168.7560 N.ar    1  UNL1       -0.0385
@<TRIPOS>BOND
     1    10    11    2
     2    11    12    1
     3    12    13    1
     4    13    14    1
     5    14    15   ar
     6    15    16   ar
     7    16    17   ar
     8    17     9    1
     9     9     7    1
    10     7     1    1
    11     1     2    1
    12     2     3    1
    13     3     4    1
    14     4    22    1
    15    22    23    1
    16    23    24    1
    17    24    25   am
    18    25    26    2
    19    25    27    1
    20    27    28    1
    21    28    29    1
    22    29    30   ar
    23    30    31   ar
    24    31    32   ar
    25    32    35    1
    26    35    36   ar
    27    36    37   ar
    28    37    38   ar
    29    38    39   ar
    30    32    33   ar
    31    33    34   ar
    32     4     5    1
    33     5     6    1
    34    17    18   ar
    35    18    19   ar
    36    19    20    1
    37    20    11   am
    38    19    14   ar
    39     6     1    1
    40    34    24    1
    41    34    29   ar
    42    39    35   ar
    43     7     8    1
    44    20    21    1
@<TRIPOS>MOLECULE
*****
 39 44 0 0 0
SMALL
GASTEIGER

@<TRIPOS>ATOM
      1 C         141.9786  144.7506  163.2251 C.3     1  UNL1        0.0570
      2 C         142.9355  144.2347  162.1916 C.3     1  UNL1        0.0331
      3 C         143.7272  142.9887  162.4580 C.3     1  UNL1        0.0735
      4 N         143.5619  142.2587  163.7580 N.3     1  UNL1       -0.2711
      5 C         142.6049  142.7747  164.7915 C.3     1  UNL1        0.0735
      6 C         141.8133  144.0206  164.5250 C.3     1  UNL1        0.0331
      7 N         141.1870  145.9965  162.9587 N.3     1  UNL1       -0.2934
      8 H         140.9959  146.4234  163.8651 H       1  UNL1        0.1236
      9 C         139.8758  145.9116  162.2350 C.3     1  UNL1        0.1152
     10 O         138.3975  139.5758  157.9429 O.2     1  UNL1       -0.2707
     11 C         138.2100  140.3613  159.2070 C.2     1  UNL1        0.2718
     12 C         137.3424  139.8203  160.3045 C.3     1  UNL1        0.2898
     13 O         137.1549  140.6058  161.5685 O.3     1  UNL1       -0.4628
     14 C         137.8351  141.9322  161.7352 C.ar    1  UNL1        0.1708
     15 C         137.6477  142.7177  162.9992 C.ar    1  UNL1        0.0411
     16 C         138.3279  144.0441  163.1658 C.ar    1  UNL1        0.0193
     17 C         139.1956  144.5852  162.0683 C.ar    1  UNL1        0.0765
     18 N         139.3831  143.7997  160.8043 N.ar    1  UNL1       -0.2304
     19 C         138.7028  142.4732  160.6377 C.ar    1  UNL1        0.1682
     20 N         138.8902  141.6877  159.3736 N.am    1  UNL1       -0.2639
     21 H         139.4597  142.0428  158.6533 H       1  UNL1        0.1565
     22 C         144.3535  141.0128  164.0244 C.3     1  UNL1        0.0942
     23 C         143.7705  139.9206  164.8713 C.3     1  UNL1        0.1157
     24 N         142.5746  139.1545  164.3885 N.am    1  UNL1       -0.2515
     25 C         142.6655  138.3331  163.1367 C.2     1  UNL1        0.2740
     26 O         143.9522  138.2779  162.3676 O.2     1  UNL1       -0.2705
     27 C         141.4697  137.5670  162.6539 C.3     1  UNL1        0.2900
     28 O         140.1829  137.6223  163.4230 O.3     1  UNL1       -0.4643
     29 C         140.0921  138.4437  164.6748 C.ar    1  UNL1        0.1529
     30 C         138.8055  138.4989  165.4439 C.ar    1  UNL1        0.0398
     31 C         138.7147  139.3203  166.6957 C.ar    1  UNL1        0.0225
     32 C         139.9105  140.0864  167.1785 C.ar    1  UNL1        0.0877
     33 C         141.1972  140.0312  166.4094 C.ar    1  UNL1        0.0372
     34 C         141.2880  139.2098  165.1576 C.ar    1  UNL1        0.0897
     35 N         139.8196  140.9078  168.4303 N.ar    1  UNL1       -0.1885
     36 C         139.1780  140.4841  169.7183 C.ar    1  UNL1        0.2258
     37 N         139.3163  141.6115  170.6980 N.ar    1  UNL1       -0.1045
     38 N         140.0434  142.7320  170.0155 N.ar    1  UNL1       -0.0222
     39 N         140.3545  142.2972  168.6140 N.ar    1  UNL1       -0.0385
@<TRIPOS>BOND
     1    10    11    2
     2    11    12    1
     3    12    13    1
     4    13    14    1
     5    14    15   ar
     6    15    16   ar
     7    16    17   ar
     8    17     9    1
     9     9     7    1
    10     7     1    1
    11     1     2    1
    12     2     3    1
    13     3     4    1
    14     4    22    1
    15    22    23    1
    16    23    24    1
    17    24    25   am
    18    25    26    2
    19    25    27    1
    20    27    28    1
    21    28    29    1
    22    29    30   ar
    23    30    31   ar
    24    31    32   ar
    25    32    35    1
    26    35    36   ar
    27    36    37   ar
    28    37    38   ar
    29    38    39   ar
    30    32    33   ar
    31    33    34   ar
    32     4     5    1
    33     5     6    1
    34    17    18   ar
    35    18    19   ar
    36    19    20    1
    37    20    11   am
    38    19    14   ar
    39     6     1    1
    40    34    24    1
    41    34    29   ar
    42    39    35   ar
    43     7     8    1
    44    20    21    1
@<TRIPOS>MOLECULE
*****
 39 44 0 0 0
SMALL
GASTEIGER

@<TRIPOS>ATOM
      1 C         143.2408  138.4355  162.6669 C.3     1  UNL1        0.0570
      2 C         142.0608  137.7913  162.0017 C.3     1  UNL1        0.0331
      3 C         140.8516  137.4250  162.8104 C.3     1  UNL1        0.0735
      4 N         140.8226  137.7029  164.2841 N.3     1  UNL1       -0.2711
      5 C         142.0027  138.3471  164.9492 C.3     1  UNL1        0.0735
      6 C         143.2118  138.7134  164.1406 C.3     1  UNL1        0.0331
      7 N         144.4499  138.8018  161.8583 N.3     1  UNL1       -0.2934
      8 H         145.2402  138.8215  162.5028 H       1  UNL1        0.1236
      9 C         144.4797  140.0940  161.0969 C.3     1  UNL1        0.1152
     10 O         139.0859  145.6802  161.7682 O.2     1  UNL1       -0.2707
     11 C         140.3945  145.0805  162.1901 C.2     1  UNL1        0.2718
     12 C         141.2137  145.7432  163.2576 C.3     1  UNL1        0.2898
     13 O         142.5223  145.1436  163.6794 O.3     1  UNL1       -0.4628
     14 C         143.0117  143.8812  163.0338 C.ar    1  UNL1        0.1708
     15 C         144.3203  143.2815  163.4557 C.ar    1  UNL1        0.0411
     16 C         144.8096  142.0192  162.8101 C.ar    1  UNL1        0.0193
     17 C         143.9904  141.3564  161.7425 C.ar    1  UNL1        0.0765
     18 N         142.6818  141.9560  161.3207 N.ar    1  UNL1       -0.2304
     19 C         142.1924  143.2185  161.9663 C.ar    1  UNL1        0.1682
     20 N         140.8838  143.8181  161.5445 N.am    1  UNL1       -0.2639
     21 H         140.3461  143.3831  160.8438 H       1  UNL1        0.1565
     22 C         139.6135  137.3365  165.0927 C.3     1  UNL1        0.0942
     23 C         138.5338  138.3506  165.3288 C.3     1  UNL1        0.1157
     24 N         138.6757  139.7391  164.7792 N.am    1  UNL1       -0.2515
     25 C         138.2504  140.0357  163.3716 C.2     1  UNL1        0.2740
     26 O         137.6832  138.9437  162.5137 O.2     1  UNL1       -0.2705
     27 C         138.3923  141.4241  162.8220 C.3     1  UNL1        0.2900
     28 O         138.9596  142.5160  163.6799 O.3     1  UNL1       -0.4643
     29 C         139.3849  142.2195  165.0875 C.ar    1  UNL1        0.1529
     30 C         139.9521  143.3114  165.9454 C.ar    1  UNL1        0.0398
     31 C         140.3774  143.0148  167.3529 C.ar    1  UNL1        0.0225
     32 C         140.2355  141.6264  167.9026 C.ar    1  UNL1        0.0877
     33 C         139.6682  140.5345  167.0446 C.ar    1  UNL1        0.0372
     34 C         139.2429  140.8310  165.6371 C.ar    1  UNL1        0.0897
     35 N         140.6608  141.3299  169.3101 N.ar    1  UNL1       -0.1885
     36 C         142.0032  140.8131  169.7352 C.ar    1  UNL1        0.2258
     37 N         141.9904  140.6619  171.2275 N.ar    1  UNL1       -0.1045
     38 N         140.6401  141.0853  171.7247 N.ar    1  UNL1       -0.0222
     39 N         139.8182  141.4981  170.5397 N.ar    1  UNL1       -0.0385
@<TRIPOS>BOND
     1    10    11    2
     2    11    12    1
     3    12    13    1
     4    13    14    1
     5    14    15   ar
     6    15    16   ar
     7    16    17   ar
     8    17     9    1
     9     9     7    1
    10     7     1    1
    11     1     2    1
    12     2     3    1
    13     3     4    1
    14     4    22    1
    15    22    23    1
    16    23    24    1
    17    24    25   am
    18    25    26    2
    19    25    27    1
    20    27    28    1
    21    28    29    1
    22    29    30   ar
    23    30    31   ar
    24    31    32   ar
    25    32    35    1
    26    35    36   ar
    27    36    37   ar
    28    37    38   ar
    29    38    39   ar
    30    32    33   ar
    31    33    34   ar
    32     4     5    1
    33     5     6    1
    34    17    18   ar
    35    18    19   ar
    36    19    20    1
    37    20    11   am
    38    19    14   ar
    39     6     1    1
    40    34    24    1
    41    34    29   ar
    42    39    35   ar
    43     7     8    1
    44    20    21    1
@<TRIPOS>MOLECULE
*****
 39 44 0 0 0
SMALL
GASTEIGER

@<TRIPOS>ATOM
      1 C         141.5268  144.3996  163.2604 C.3     1  UNL1        0.0570
      2 C         140.5753  143.8409  162.2444 C.3     1  UNL1        0.0331
      3 C         139.3970  143.0257  162.6888 C.3     1  UNL1        0.0735
      4 N         139.1705  142.7694  164.1493 N.3     1  UNL1       -0.2711
      5 C         140.1221  143.3281  165.1653 C.3     1  UNL1        0.0735
      6 C         141.3003  144.1432  164.7209 C.3     1  UNL1        0.0331
      7 N         142.7050  145.2147  162.8159 N.3     1  UNL1       -0.2934
      8 H         142.4728  145.5908  161.8967 H       1  UNL1        0.1236
      9 C         144.0562  144.5750  162.6935 C.3     1  UNL1        0.1152
     10 O         143.0566  137.8536  158.8760 O.2     1  UNL1       -0.2707
     11 C         143.5103  138.5998  160.0955 C.2     1  UNL1        0.2718
     12 C         144.0843  137.8519  161.2621 C.3     1  UNL1        0.2898
     13 O         144.5380  138.5981  162.4817 O.3     1  UNL1       -0.4628
     14 C         144.4176  140.0923  162.5346 C.ar    1  UNL1        0.1708
     15 C         144.8712  140.8386  163.7542 C.ar    1  UNL1        0.0411
     16 C         144.7508  142.3328  163.8071 C.ar    1  UNL1        0.0193
     17 C         144.1767  143.0808  162.6405 C.ar    1  UNL1        0.0765
     18 N         143.7230  142.3345  161.4209 N.ar    1  UNL1       -0.2304
     19 C         143.8435  140.8403  161.3680 C.ar    1  UNL1        0.1682
     20 N         143.3898  140.0940  160.1485 N.am    1  UNL1       -0.2639
     21 H         143.0130  140.5849  159.3828 H       1  UNL1        0.1565
     22 C         137.9923  141.9543  164.5938 C.3     1  UNL1        0.0942
     23 C         138.1998  140.5747  165.1447 C.3     1  UNL1        0.1157
     24 N         139.4440  139.8097  164.8026 N.am    1  UNL1       -0.2515
     25 C         139.5997  139.2014  163.4404 C.2     1  UNL1        0.2740
     26 O         138.5112  139.3579  162.4202 O.2     1  UNL1       -0.2705
     27 C         140.8438  138.4365  163.0983 C.3     1  UNL1        0.2900
     28 O         141.9324  138.2799  164.1185 O.3     1  UNL1       -0.4643
     29 C         141.7767  138.8883  165.4807 C.ar    1  UNL1        0.1529
     30 C         142.8651  138.7318  166.5009 C.ar    1  UNL1        0.0398
     31 C         142.7095  139.3401  167.8631 C.ar    1  UNL1        0.0225
     32 C         141.4654  140.1050  168.2052 C.ar    1  UNL1        0.0877
     33 C         140.3768  140.2616  167.1850 C.ar    1  UNL1        0.0372
     34 C         140.5325  139.6532  165.8228 C.ar    1  UNL1        0.0897
     35 N         141.3097  140.7134  169.5674 N.ar    1  UNL1       -0.1885
     36 C         142.0521  141.9075  170.0898 C.ar    1  UNL1        0.2258
     37 N         141.5855  142.1666  171.4917 N.ar    1  UNL1       -0.1045
     38 N         140.5548  141.1326  171.8357 N.ar    1  UNL1       -0.0222
     39 N         140.3842  140.2344  170.6464 N.ar    1  UNL1       -0.0385
@<TRIPOS>BOND
     1    10    11    2
     2    11    12    1
     3    12    13    1
     4    13    14    1
     5    14    15   ar
     6    15    16   ar
     7    16    17   ar
     8    17     9    1
     9     9     7    1
    10     7     1    1
    11     1     2    1
    12     2     3    1
    13     3     4    1
    14     4    22    1
    15    22    23    1
    16    23    24    1
    17    24    25   am
    18    25    26    2
    19    25    27    1
    20    27    28    1
    21    28    29    1
    22    29    30   ar
    23    30    31   ar
    24    31    32   ar
    25    32    35    1
    26    35    36   ar
    27    36    37   ar
    28    37    38   ar
    29    38    39   ar
    30    32    33   ar
    31    33    34   ar
    32     4     5    1
    33     5     6    1
    34    17    18   ar
    35    18    19   ar
    36    19    20    1
    37    20    11   am
    38    19    14   ar
    39     6     1    1
    40    34    24    1
    41    34    29   ar
    42    39    35   ar
    43     7     8    1
    44    20    21    1
