@<TRIPOS>MOLECULE
*****
 35 39 0 0 0
SMALL
GASTEIGER

@<TRIPOS>ATOM
      1 N         140.5513  141.4187  168.6674 N.3     1  UNL1       -0.2752
      2 C         141.3199  142.6511  169.0423 C.3     1  UNL1        0.0578
      3 C         141.7130  142.5313  170.4849 C.3     1  UNL1        0.0173
      4 C         141.1873  141.2249  171.0016 C.3     1  UNL1        0.0173
      5 C         140.4694  140.5373  169.8783 C.3     1  UNL1        0.0578
      6 C         139.8254  140.0899  168.5883 C.3     1  UNL1        0.0204
      7 C         139.9886  141.0720  167.4663 C.3     1  UNL1        0.0272
      8 C         140.7358  142.3526  167.6933 C.3     1  UNL1        0.0204
      9 C         139.4044  140.7735  166.1173 C.ar    1  UNL1        0.0050
     10 C         139.1875  139.3515  165.6919 C.ar    1  UNL1       -0.0021
     11 C         138.6034  139.0530  164.3430 C.ar    1  UNL1        0.0037
     12 C         138.2363  140.1764  163.4194 C.ar    1  UNL1        0.0736
     13 C         138.4532  141.5984  163.8447 C.ar    1  UNL1        0.0332
     14 C         139.0373  141.8969  165.1936 C.ar    1  UNL1        0.1361
     15 F         139.2543  143.3189  165.6190 F       1  UNL1       -0.2045
     16 C         137.6522  139.8778  162.0705 C.3     1  UNL1        0.4186
     17 F         137.0615  139.9439  160.6932 F       1  UNL1       -0.1659
     18 F         137.6066  138.3794  162.0182 F       1  UNL1       -0.1659
     19 F         137.5534  141.3476  161.7879 F       1  UNL1       -0.1659
     20 C         139.9672  141.1203  167.3184 C.3     1  UNL1        0.0729
     21 C         140.7435  140.3023  166.3293 C.3     1  UNL1        0.0294
     22 C         142.2431  140.3117  166.3611 C.3     1  UNL1        0.0666
     23 S         143.0164  140.7417  165.1499 S.3     1  UNL1       -0.0756
     24 C         141.9933  143.7471  162.9170 C.ar    1  UNL1        0.2029
     25 N         142.5655  144.4539  164.1098 N.ar    1  UNL1       -0.1250
     26 N         143.0185  143.4141  165.0915 N.ar    1  UNL1       -0.1220
     27 C         142.7261  142.0647  164.5053 C.ar    1  UNL1        0.1933
     28 N         142.0925  142.2705  163.1614 N.ar    1  UNL1       -0.2860
     29 C         141.5418  141.4731  162.0163 C.3     1  UNL1        0.1341
     30 C         138.9931  145.0000  162.6364 C.3     1  UNL1        0.0556
     31 C         140.0430  144.9778  161.5654 C.ar    1  UNL1        0.1001
     32 N         139.8982  145.5277  160.1773 N.ar    1  UNL1       -0.2085
     33 C         141.1878  145.2916  159.4484 C.ar    1  UNL1        0.2849
     34 O         142.1295  144.5959  160.3860 O.2     1  UNL1       -0.4283
     35 C         141.4220  144.4019  161.6943 C.ar    1  UNL1        0.1964
@<TRIPOS>BOND
     1    30    31    1
     2    31    32   ar
     3    32    33   ar
     4    33    34   ar
     5    34    35   ar
     6    35    24    1
     7    24    25   ar
     8    25    26   ar
     9    26    27   ar
    10    27    23    1
    11    23    22    1
    12    22    21    1
    13    21    20    1
    14    20     1    1
    15     1     2    1
    16     2     3    1
    17     3     4    1
    18     5     4    1
    19     5     6    1
    20     6     7    1
    21     7     9    1
    22     9    10   ar
    23    10    11   ar
    24    11    12   ar
    25    12    16    1
    26    16    17    1
    27    16    18    1
    28    16    19    1
    29    12    13   ar
    30    13    14   ar
    31    14    15    1
    32     7     8    1
    33    27    28   ar
    34    28    29    1
    35    35    31   ar
    36    28    24   ar
    37     5     1    1
    38    14     9   ar
    39     8     2    1
@<TRIPOS>MOLECULE
*****
 35 39 0 0 0
SMALL
GASTEIGER

@<TRIPOS>ATOM
      1 N         138.5362  139.4217  163.6891 N.3     1  UNL1       -0.2752
      2 C         138.7264  138.0281  163.1678 C.3     1  UNL1        0.0578
      3 C         138.1751  137.9753  161.7738 C.3     1  UNL1        0.0173
      4 C         137.6442  139.3363  161.4335 C.3     1  UNL1        0.0173
      5 C         137.8673  140.2302  162.6173 C.3     1  UNL1        0.0578
      6 C         138.2139  140.8830  163.9336 C.3     1  UNL1        0.0204
      7 C         138.8773  139.9532  164.9059 C.3     1  UNL1        0.0272
      8 C         139.1336  138.5257  164.5230 C.3     1  UNL1        0.0204
      9 C         139.2845  140.4509  166.2611 C.ar    1  UNL1        0.0050
     10 C         140.0724  141.7211  166.3881 C.ar    1  UNL1       -0.0021
     11 C         140.4795  142.2187  167.7432 C.ar    1  UNL1        0.0037
     12 C         140.0988  141.4463  168.9714 C.ar    1  UNL1        0.0736
     13 C         139.3110  140.1762  168.8445 C.ar    1  UNL1        0.0332
     14 C         138.9039  139.6785  167.4893 C.ar    1  UNL1        0.1361
     15 F         138.1160  138.4084  167.3624 F       1  UNL1       -0.2045
     16 C         140.5060  141.9441  170.3266 C.3     1  UNL1        0.4186
     17 F         141.0557  142.1063  171.7128 F       1  UNL1       -0.1659
     18 F         139.9848  143.3499  170.3687 F       1  UNL1       -0.1659
     19 F         141.1448  140.6192  170.6212 F       1  UNL1       -0.1659
     20 C         138.9434  139.9193  165.0443 C.3     1  UNL1        0.0729
     21 C         140.3321  140.4415  165.2655 C.3     1  UNL1        0.0294
     22 C         141.5173  139.6048  164.8848 C.3     1  UNL1        0.0666
     23 S         142.7256  140.2501  164.2734 S.3     1  UNL1       -0.0756
     24 C         142.0572  143.5225  162.2962 C.ar    1  UNL1        0.2029
     25 N         142.9206  144.0298  163.4129 N.ar    1  UNL1       -0.1250
     26 N         143.2761  142.8657  164.2895 N.ar    1  UNL1       -0.1220
     27 C         142.6324  141.6389  163.7146 C.ar    1  UNL1        0.1933
     28 N         141.8790  142.0449  162.4826 N.ar    1  UNL1       -0.2860
     29 C         141.0242  141.4419  161.4076 C.3     1  UNL1        0.1341
     30 C         139.2179  145.1285  162.3896 C.3     1  UNL1        0.0556
     31 C         140.1691  145.0861  161.2306 C.ar    1  UNL1        0.1001
     32 N         139.9823  145.7745  159.9111 N.ar    1  UNL1       -0.2085
     33 C         141.1719  145.4617  159.0526 C.ar    1  UNL1        0.2849
     34 O         142.0940  144.5801  159.8416 O.2     1  UNL1       -0.4283
     35 C         141.4742  144.3479  161.1877 C.ar    1  UNL1        0.1964
@<TRIPOS>BOND
     1    30    31    1
     2    31    32   ar
     3    32    33   ar
     4    33    34   ar
     5    34    35   ar
     6    35    24    1
     7    24    25   ar
     8    25    26   ar
     9    26    27   ar
    10    27    23    1
    11    23    22    1
    12    22    21    1
    13    21    20    1
    14    20     1    1
    15     1     2    1
    16     2     3    1
    17     3     4    1
    18     5     4    1
    19     5     6    1
    20     6     7    1
    21     7     9    1
    22     9    10   ar
    23    10    11   ar
    24    11    12   ar
    25    12    16    1
    26    16    17    1
    27    16    18    1
    28    16    19    1
    29    12    13   ar
    30    13    14   ar
    31    14    15    1
    32     7     8    1
    33    27    28   ar
    34    28    29    1
    35    35    31   ar
    36    28    24   ar
    37     5     1    1
    38    14     9   ar
    39     8     2    1
@<TRIPOS>MOLECULE
*****
 35 39 0 0 0
SMALL
GASTEIGER

@<TRIPOS>ATOM
      1 N         140.4801  141.4470  168.7738 N.3     1  UNL1       -0.2752
      2 C         141.4506  142.5688  168.9969 C.3     1  UNL1        0.0578
      3 C         141.7026  142.6773  170.4716 C.3     1  UNL1        0.0173
      4 C         140.8878  141.6226  171.1599 C.3     1  UNL1        0.0173
      5 C         140.1323  140.8622  170.1106 C.3     1  UNL1        0.0578
      6 C         139.5098  140.2852  168.8621 C.3     1  UNL1        0.0204
      7 C         139.9505  140.9703  167.6026 C.3     1  UNL1        0.0272
      8 C         140.9210  142.1120  167.6700 C.3     1  UNL1        0.0204
      9 C         139.4208  140.5135  166.2756 C.ar    1  UNL1        0.0050
     10 C         139.2706  139.0481  165.9922 C.ar    1  UNL1       -0.0021
     11 C         138.7409  138.5914  164.6653 C.ar    1  UNL1        0.0037
     12 C         138.3615  139.5999  163.6218 C.ar    1  UNL1        0.0736
     13 C         138.5117  141.0652  163.9052 C.ar    1  UNL1        0.0332
     14 C         139.0414  141.5219  165.2321 C.ar    1  UNL1        0.1361
     15 F         139.1916  142.9873  165.5155 F       1  UNL1       -0.2045
     16 C         137.8318  139.1430  162.2948 C.3     1  UNL1        0.4186
     17 F         137.2158  139.0398  160.9310 F       1  UNL1       -0.1659
     18 F         138.1126  137.6697  162.2797 F       1  UNL1       -0.1659
     19 F         137.4103  140.5476  161.9795 F       1  UNL1       -0.1659
     20 C         139.9505  140.9903  167.4468 C.3     1  UNL1        0.0729
     21 C         140.6689  139.9192  166.6809 C.3     1  UNL1        0.0294
     22 C         142.1581  139.7841  166.7980 C.3     1  UNL1        0.0666
     23 S         143.0036  139.7053  165.5615 S.3     1  UNL1       -0.0756
     24 C         141.8443  141.8228  162.5223 C.ar    1  UNL1        0.2029
     25 N         141.5728  140.4331  162.0276 N.ar    1  UNL1       -0.1250
     26 N         141.9741  139.4706  163.1059 N.ar    1  UNL1       -0.1220
     27 C         142.4935  140.2656  164.2670 C.ar    1  UNL1        0.1933
     28 N         142.4133  141.7194  163.9063 N.ar    1  UNL1       -0.2860
     29 C         142.7197  143.0668  164.4900 C.3     1  UNL1        0.1341
     30 C         143.5948  142.9365  160.0034 C.3     1  UNL1        0.0556
     31 C         142.3958  143.6050  160.6080 C.ar    1  UNL1        0.1001
     32 N         141.7909  144.9028  160.1608 N.ar    1  UNL1       -0.2085
     33 C         140.6124  145.1930  161.0424 C.ar    1  UNL1        0.2849
     34 O         140.4890  144.0745  162.0342 O.2     1  UNL1       -0.4283
     35 C         141.5912  143.0931  161.7658 C.ar    1  UNL1        0.1964
@<TRIPOS>BOND
     1    30    31    1
     2    31    32   ar
     3    32    33   ar
     4    33    34   ar
     5    34    35   ar
     6    35    24    1
     7    24    25   ar
     8    25    26   ar
     9    26    27   ar
    10    27    23    1
    11    23    22    1
    12    22    21    1
    13    21    20    1
    14    20     1    1
    15     1     2    1
    16     2     3    1
    17     3     4    1
    18     5     4    1
    19     5     6    1
    20     6     7    1
    21     7     9    1
    22     9    10   ar
    23    10    11   ar
    24    11    12   ar
    25    12    16    1
    26    16    17    1
    27    16    18    1
    28    16    19    1
    29    12    13   ar
    30    13    14   ar
    31    14    15    1
    32     7     8    1
    33    27    28   ar
    34    28    29    1
    35    35    31   ar
    36    28    24   ar
    37     5     1    1
    38    14     9   ar
    39     8     2    1
@<TRIPOS>MOLECULE
*****
 35 39 0 0 0
SMALL
GASTEIGER

@<TRIPOS>ATOM
      1 N         140.9802  138.4466  160.0437 N.3     1  UNL1       -0.2752
      2 C         142.4103  138.1419  159.7091 C.3     1  UNL1        0.0578
      3 C         142.5667  138.2292  158.2198 C.3     1  UNL1        0.0173
      4 C         141.2333  138.5878  157.6340 C.3     1  UNL1        0.0173
      5 C         140.2527  138.7222  158.7612 C.3     1  UNL1        0.0578
      6 C         139.5031  138.7879  160.0699 C.3     1  UNL1        0.0204
      7 C         140.3590  138.4896  161.2651 C.3     1  UNL1        0.0272
      8 C         141.8127  138.1666  161.0847 C.3     1  UNL1        0.0204
      9 C         139.7613  138.5144  162.6407 C.ar    1  UNL1        0.0050
     10 C         138.7339  139.5488  162.9934 C.ar    1  UNL1       -0.0021
     11 C         138.1362  139.5736  164.3689 C.ar    1  UNL1        0.0037
     12 C         138.5659  138.5640  165.3917 C.ar    1  UNL1        0.0736
     13 C         139.5933  137.5296  165.0389 C.ar    1  UNL1        0.0332
     14 C         140.1910  137.5048  163.6634 C.ar    1  UNL1        0.1361
     15 F         141.2184  136.4704  163.3107 F       1  UNL1       -0.2045
     16 C         137.9682  138.5888  166.7672 C.3     1  UNL1        0.4186
     17 F         137.4951  138.9575  168.1422 F       1  UNL1       -0.1659
     18 F         137.3949  137.2134  166.9388 F       1  UNL1       -0.1659
     19 F         138.4099  140.0126  166.9335 F       1  UNL1       -0.1659
     20 C         140.3826  138.4714  161.4193 C.3     1  UNL1        0.0729
     21 C         140.3850  139.7427  162.2153 C.3     1  UNL1        0.0294
     22 C         141.6093  140.6088  162.2415 C.3     1  UNL1        0.0666
     23 S         141.9309  141.4162  163.4641 S.3     1  UNL1       -0.0756
     24 C         141.8180  140.2613  167.1679 C.ar    1  UNL1        0.2029
     25 N         142.6107  139.1521  166.5425 N.ar    1  UNL1       -0.1250
     26 N         142.7495  139.4497  165.0789 N.ar    1  UNL1       -0.1220
     27 C         142.0425  140.7429  164.7998 C.ar    1  UNL1        0.1933
     28 N         141.4668  141.2444  166.0909 N.ar    1  UNL1       -0.2860
     29 C         140.6681  142.3979  166.6216 C.3     1  UNL1        0.1341
     30 C         143.3811  142.0189  169.4300 C.3     1  UNL1        0.0556
     31 C         142.1608  141.1763  169.6559 C.ar    1  UNL1        0.1001
     32 N         141.4448  140.9938  170.9612 N.ar    1  UNL1       -0.2085
     33 C         140.2837  140.0731  170.7282 C.ar    1  UNL1        0.2849
     34 O         140.2822  139.6866  169.2789 O.2     1  UNL1       -0.4283
     35 C         141.4423  140.3685  168.6161 C.ar    1  UNL1        0.1964
@<TRIPOS>BOND
     1    30    31    1
     2    31    32   ar
     3    32    33   ar
     4    33    34   ar
     5    34    35   ar
     6    35    24    1
     7    24    25   ar
     8    25    26   ar
     9    26    27   ar
    10    27    23    1
    11    23    22    1
    12    22    21    1
    13    21    20    1
    14    20     1    1
    15     1     2    1
    16     2     3    1
    17     3     4    1
    18     5     4    1
    19     5     6    1
    20     6     7    1
    21     7     9    1
    22     9    10   ar
    23    10    11   ar
    24    11    12   ar
    25    12    16    1
    26    16    17    1
    27    16    18    1
    28    16    19    1
    29    12    13   ar
    30    13    14   ar
    31    14    15    1
    32     7     8    1
    33    27    28   ar
    34    28    29    1
    35    35    31   ar
    36    28    24   ar
    37     5     1    1
    38    14     9   ar
    39     8     2    1
@<TRIPOS>MOLECULE
*****
 35 39 0 0 0
SMALL
GASTEIGER

@<TRIPOS>ATOM
      1 N         141.3501  140.9805  168.8722 N.3     1  UNL1       -0.2752
      2 C         142.1585  139.7345  169.0818 C.3     1  UNL1        0.0578
      3 C         142.6430  139.7296  170.5014 C.3     1  UNL1        0.0173
      4 C         142.1340  140.9725  171.1692 C.3     1  UNL1        0.0173
      5 C         141.3349  141.7457  170.1623 C.3     1  UNL1        0.0578
      6 C         140.6021  142.2964  168.9629 C.3     1  UNL1        0.0204
      7 C         140.7055  141.4245  167.7467 C.3     1  UNL1        0.0272
      8 C         141.4837  140.1436  167.8061 C.3     1  UNL1        0.0204
      9 C         140.0306  141.8336  166.4710 C.ar    1  UNL1        0.0050
     10 C         140.0556  143.2690  166.0362 C.ar    1  UNL1       -0.0021
     11 C         139.3808  143.6781  164.7606 C.ar    1  UNL1        0.0037
     12 C         138.6810  142.6518  163.9198 C.ar    1  UNL1        0.0736
     13 C         138.6561  141.2164  164.3545 C.ar    1  UNL1        0.0332
     14 C         139.3309  140.8073  165.6301 C.ar    1  UNL1        0.1361
     15 F         139.3059  139.3719  166.0649 F       1  UNL1       -0.2045
     16 C         138.0062  143.0609  162.6441 C.3     1  UNL1        0.4186
     17 F         137.4888  143.1659  161.2400 F       1  UNL1       -0.1659
     18 F         137.2923  144.3306  163.0022 F       1  UNL1       -0.1659
     19 F         138.5737  141.8544  161.9570 F       1  UNL1       -0.1659
     20 C         140.6753  141.3896  167.5966 C.3     1  UNL1        0.0729
     21 C         141.4599  142.0811  166.5213 C.3     1  UNL1        0.0294
     22 C         142.9558  142.1473  166.6093 C.3     1  UNL1        0.0666
     23 S         143.7778  142.2307  165.3574 S.3     1  UNL1       -0.0756
     24 C         142.4830  144.2472  162.3042 C.ar    1  UNL1        0.2029
     25 N         143.2933  145.2889  163.0169 N.ar    1  UNL1       -0.1250
     26 N         143.8771  144.6604  164.2474 N.ar    1  UNL1       -0.1220
     27 C         143.4274  143.2302  164.2952 C.ar    1  UNL1        0.1933
     28 N         142.5658  142.9749  163.0941 N.ar    1  UNL1       -0.2860
     29 C         141.7817  141.8659  162.4572 C.3     1  UNL1        0.1341
     30 C         139.8610  146.1485  161.9038 C.3     1  UNL1        0.0556
     31 C         140.5179  145.3174  160.8418 C.ar    1  UNL1        0.1001
     32 N         140.0850  145.2143  159.4094 N.ar    1  UNL1       -0.2085
     33 C         141.0226  144.2766  158.7081 C.ar    1  UNL1        0.2849
     34 O         142.0350  143.8003  159.7072 O.2     1  UNL1       -0.4283
     35 C         141.7231  144.4435  161.0259 C.ar    1  UNL1        0.1964
@<TRIPOS>BOND
     1    30    31    1
     2    31    32   ar
     3    32    33   ar
     4    33    34   ar
     5    34    35   ar
     6    35    24    1
     7    24    25   ar
     8    25    26   ar
     9    26    27   ar
    10    27    23    1
    11    23    22    1
    12    22    21    1
    13    21    20    1
    14    20     1    1
    15     1     2    1
    16     2     3    1
    17     3     4    1
    18     5     4    1
    19     5     6    1
    20     6     7    1
    21     7     9    1
    22     9    10   ar
    23    10    11   ar
    24    11    12   ar
    25    12    16    1
    26    16    17    1
    27    16    18    1
    28    16    19    1
    29    12    13   ar
    30    13    14   ar
    31    14    15    1
    32     7     8    1
    33    27    28   ar
    34    28    29    1
    35    35    31   ar
    36    28    24   ar
    37     5     1    1
    38    14     9   ar
    39     8     2    1
@<TRIPOS>MOLECULE
*****
 35 39 0 0 0
SMALL
GASTEIGER

@<TRIPOS>ATOM
      1 N         141.5340  141.1834  168.2384 N.3     1  UNL1       -0.2752
      2 C         142.3312  139.9149  168.1656 C.3     1  UNL1        0.0578
      3 C         142.4621  139.3692  169.5567 C.3     1  UNL1        0.0173
      4 C         141.7458  140.3005  170.4892 C.3     1  UNL1        0.0173
      5 C         141.1722  141.4218  169.6745 C.3     1  UNL1        0.0578
      6 C         140.7202  142.4043  168.6212 C.3     1  UNL1        0.0204
      7 C         141.1553  142.0359  167.2337 C.3     1  UNL1        0.0272
      8 C         141.9608  140.7912  167.0060 C.3     1  UNL1        0.0204
      9 C         140.7849  142.9123  166.0740 C.ar    1  UNL1        0.0050
     10 C         139.4686  143.6316  166.0679 C.ar    1  UNL1       -0.0021
     11 C         139.0983  144.5079  164.9083 C.ar    1  UNL1        0.0037
     12 C         140.0442  144.6650  163.7547 C.ar    1  UNL1        0.0736
     13 C         141.3604  143.9457  163.7608 C.ar    1  UNL1        0.0332
     14 C         141.7308  143.0694  164.9205 C.ar    1  UNL1        0.1361
     15 F         143.0471  142.3501  164.9266 F       1  UNL1       -0.2045
     16 C         139.6737  145.5413  162.5951 C.3     1  UNL1        0.4186
     17 F         139.6637  146.4793  161.4244 F       1  UNL1       -0.1659
     18 F         138.1834  145.4025  162.4966 F       1  UNL1       -0.1659
     19 F         141.1173  145.9031  162.4073 F       1  UNL1       -0.1659
     20 C         141.1636  142.0597  167.0787 C.3     1  UNL1        0.0729
     21 C         139.8988  141.7991  166.3156 C.3     1  UNL1        0.0294
     22 C         139.3428  140.4082  166.2381 C.3     1  UNL1        0.0666
     23 S         138.3697  140.0487  165.1546 S.3     1  UNL1       -0.0756
     24 C         138.9866  141.7737  161.7328 C.ar    1  UNL1        0.2029
     25 N         137.6323  142.3116  162.0885 N.ar    1  UNL1       -0.1250
     26 N         137.2364  141.7309  163.4137 N.ar    1  UNL1       -0.1220
     27 C         138.3460  140.8341  163.8769 C.ar    1  UNL1        0.1933
     28 N         139.4277  140.8606  162.8380 N.ar    1  UNL1       -0.2860
     29 C         140.7803  140.2693  162.5722 C.3     1  UNL1        0.1341
     30 C         138.6701  140.2962  158.8404 C.3     1  UNL1        0.0556
     31 C         139.6180  141.4138  159.1605 C.ar    1  UNL1        0.1001
     32 N         140.5867  142.0485  158.2073 N.ar    1  UNL1       -0.2085
     33 C         141.3309  143.1199  158.9476 C.ar    1  UNL1        0.2849
     34 O         140.8221  143.1474  160.3584 O.2     1  UNL1       -0.4283
     35 C         139.7634  142.0930  160.4900 C.ar    1  UNL1        0.1964
@<TRIPOS>BOND
     1    30    31    1
     2    31    32   ar
     3    32    33   ar
     4    33    34   ar
     5    34    35   ar
     6    35    24    1
     7    24    25   ar
     8    25    26   ar
     9    26    27   ar
    10    27    23    1
    11    23    22    1
    12    22    21    1
    13    21    20    1
    14    20     1    1
    15     1     2    1
    16     2     3    1
    17     3     4    1
    18     5     4    1
    19     5     6    1
    20     6     7    1
    21     7     9    1
    22     9    10   ar
    23    10    11   ar
    24    11    12   ar
    25    12    16    1
    26    16    17    1
    27    16    18    1
    28    16    19    1
    29    12    13   ar
    30    13    14   ar
    31    14    15    1
    32     7     8    1
    33    27    28   ar
    34    28    29    1
    35    35    31   ar
    36    28    24   ar
    37     5     1    1
    38    14     9   ar
    39     8     2    1
@<TRIPOS>MOLECULE
*****
 35 39 0 0 0
SMALL
GASTEIGER

@<TRIPOS>ATOM
      1 N         140.9454  141.2429  168.8399 N.3     1  UNL1       -0.2752
      2 C         141.2098  140.3351  170.0045 C.3     1  UNL1        0.0578
      3 C         141.8341  141.1521  171.0966 C.3     1  UNL1        0.0173
      4 C         141.9555  142.5647  170.6071 C.3     1  UNL1        0.0173
      5 C         141.4062  142.6208  169.2124 C.3     1  UNL1        0.0578
      6 C         140.8031  142.3819  167.8492 C.3     1  UNL1        0.0204
      7 C         140.3895  140.9585  167.6194 C.3     1  UNL1        0.0272
      8 C         140.5928  139.9351  168.6970 C.3     1  UNL1        0.0204
      9 C         139.7725  140.5585  166.3119 C.ar    1  UNL1        0.0050
     10 C         140.2321  141.2025  165.0376 C.ar    1  UNL1       -0.0021
     11 C         139.6152  140.8026  163.7302 C.ar    1  UNL1        0.0037
     12 C         138.5387  139.7586  163.6971 C.ar    1  UNL1        0.0736
     13 C         138.0791  139.1145  164.9715 C.ar    1  UNL1        0.0332
     14 C         138.6960  139.5145  166.2788 C.ar    1  UNL1        0.1361
     15 F         138.2364  138.8704  167.5532 F       1  UNL1       -0.2045
     16 C         137.9217  139.3586  162.3897 C.3     1  UNL1        0.4186
     17 F         137.2712  139.3203  161.0385 F       1  UNL1       -0.1659
     18 F         137.9807  137.8599  162.4038 F       1  UNL1       -0.1659
     19 F         137.7071  140.8035  162.0490 F       1  UNL1       -0.1659
     20 C         140.3284  140.8428  167.5325 C.3     1  UNL1        0.0729
     21 C         141.1972  140.3543  166.4115 C.3     1  UNL1        0.0294
     22 C         142.5640  139.8104  166.7044 C.3     1  UNL1        0.0666
     23 S         143.0477  138.5779  165.9993 S.3     1  UNL1       -0.0756
     24 C         142.0420  137.9420  162.3049 C.ar    1  UNL1        0.2029
     25 N         140.9732  137.1806  163.0313 N.ar    1  UNL1       -0.1250
     26 N         141.2198  137.3262  164.5037 N.ar    1  UNL1       -0.1220
     27 C         142.4411  138.1775  164.6872 C.ar    1  UNL1        0.1933
     28 N         142.9492  138.5581  163.3282 N.ar    1  UNL1       -0.2860
     29 C         144.0578  139.3456  162.6950 C.3     1  UNL1        0.1341
     30 C         140.7878  140.3187  160.4534 C.3     1  UNL1        0.0556
     31 C         141.6031  139.1581  159.9653 C.ar    1  UNL1        0.1001
     32 N         141.9849  138.8861  158.5404 N.ar    1  UNL1       -0.2085
     33 C         142.7975  137.6256  158.5108 C.ar    1  UNL1        0.2849
     34 O         142.9177  137.1185  159.9174 O.2     1  UNL1       -0.4283
     35 C         142.1796  138.0656  160.8163 C.ar    1  UNL1        0.1964
@<TRIPOS>BOND
     1    30    31    1
     2    31    32   ar
     3    32    33   ar
     4    33    34   ar
     5    34    35   ar
     6    35    24    1
     7    24    25   ar
     8    25    26   ar
     9    26    27   ar
    10    27    23    1
    11    23    22    1
    12    22    21    1
    13    21    20    1
    14    20     1    1
    15     1     2    1
    16     2     3    1
    17     3     4    1
    18     5     4    1
    19     5     6    1
    20     6     7    1
    21     7     9    1
    22     9    10   ar
    23    10    11   ar
    24    11    12   ar
    25    12    16    1
    26    16    17    1
    27    16    18    1
    28    16    19    1
    29    12    13   ar
    30    13    14   ar
    31    14    15    1
    32     7     8    1
    33    27    28   ar
    34    28    29    1
    35    35    31   ar
    36    28    24   ar
    37     5     1    1
    38    14     9   ar
    39     8     2    1
@<TRIPOS>MOLECULE
*****
 35 39 0 0 0
SMALL
GASTEIGER

@<TRIPOS>ATOM
      1 N         139.2876  140.1489  163.2599 N.3     1  UNL1       -0.2752
      2 C         140.2581  140.2573  162.1212 C.3     1  UNL1        0.0578
      3 C         139.5826  139.7408  160.8856 C.3     1  UNL1        0.0173
      4 C         138.1946  139.3132  161.2605 C.3     1  UNL1        0.0173
      5 C         138.0123  139.5654  162.7279 C.3     1  UNL1        0.0578
      6 C         138.1134  139.9208  164.1917 C.3     1  UNL1        0.0204
      7 C         139.4451  140.4932  164.5775 C.3     1  UNL1        0.0272
      8 C         140.5175  140.6615  163.5423 C.3     1  UNL1        0.0204
      9 C         139.7044  140.8974  165.9986 C.ar    1  UNL1        0.0050
     10 C         140.3965  142.1948  166.2950 C.ar    1  UNL1       -0.0021
     11 C         140.6558  142.5990  167.7160 C.ar    1  UNL1        0.0037
     12 C         140.2231  141.7058  168.8406 C.ar    1  UNL1        0.0736
     13 C         139.5310  140.4083  168.5443 C.ar    1  UNL1        0.0332
     14 C         139.2717  140.0042  167.1233 C.ar    1  UNL1        0.1361
     15 F         138.5797  138.7068  166.8269 F       1  UNL1       -0.2045
     16 C         140.4824  142.1100  170.2617 C.3     1  UNL1        0.4186
     17 F         140.6581  142.1646  171.7504 F       1  UNL1       -0.1659
     18 F         140.8495  143.5611  170.1651 F       1  UNL1       -0.1659
     19 F         140.1687  140.7152  170.7157 F       1  UNL1       -0.1659
     20 C         139.5470  140.5531  164.6809 C.3     1  UNL1        0.0729
     21 C         139.2062  141.9397  165.1404 C.3     1  UNL1        0.0294
     22 C         137.9320  142.5882  164.6867 C.3     1  UNL1        0.0666
     23 S         137.9803  143.8215  163.8343 S.3     1  UNL1       -0.0756
     24 C         139.6722  144.0666  160.3497 C.ar    1  UNL1        0.2029
     25 N         138.5569  143.1054  160.0633 N.ar    1  UNL1       -0.1250
     26 N         137.7873  142.8965  161.3338 N.ar    1  UNL1       -0.1220
     27 C         138.4270  143.7287  162.4053 C.ar    1  UNL1        0.1933
     28 N         139.5919  144.4519  161.7971 N.ar    1  UNL1       -0.2860
     29 C         140.6734  145.4173  162.1824 C.3     1  UNL1        0.1341
     30 C         142.6526  142.8205  159.8873 C.3     1  UNL1        0.0556
     31 C         142.0591  143.9838  159.1494 C.ar    1  UNL1        0.1001
     32 N         142.7315  144.7786  158.0695 N.ar    1  UNL1       -0.2085
     33 C         141.7770  145.8426  157.6146 C.ar    1  UNL1        0.2849
     34 O         140.5149  145.7054  158.4134 O.2     1  UNL1       -0.4283
     35 C         140.6892  144.5566  159.3620 C.ar    1  UNL1        0.1964
@<TRIPOS>BOND
     1    30    31    1
     2    31    32   ar
     3    32    33   ar
     4    33    34   ar
     5    34    35   ar
     6    35    24    1
     7    24    25   ar
     8    25    26   ar
     9    26    27   ar
    10    27    23    1
    11    23    22    1
    12    22    21    1
    13    21    20    1
    14    20     1    1
    15     1     2    1
    16     2     3    1
    17     3     4    1
    18     5     4    1
    19     5     6    1
    20     6     7    1
    21     7     9    1
    22     9    10   ar
    23    10    11   ar
    24    11    12   ar
    25    12    16    1
    26    16    17    1
    27    16    18    1
    28    16    19    1
    29    12    13   ar
    30    13    14   ar
    31    14    15    1
    32     7     8    1
    33    27    28   ar
    34    28    29    1
    35    35    31   ar
    36    28    24   ar
    37     5     1    1
    38    14     9   ar
    39     8     2    1
@<TRIPOS>MOLECULE
*****
 35 39 0 0 0
SMALL
GASTEIGER

@<TRIPOS>ATOM
      1 N         141.1483  140.0337  168.3689 N.3     1  UNL1       -0.2752
      2 C         142.5857  139.7313  168.6731 C.3     1  UNL1        0.0578
      3 C         142.8291  140.0442  170.1198 C.3     1  UNL1        0.0173
      4 C         141.5421  140.5399  170.7096 C.3     1  UNL1        0.0173
      5 C         140.5033  140.5334  169.6275 C.3     1  UNL1        0.0578
      6 C         139.6826  140.4220  168.3654 C.3     1  UNL1        0.0204
      7 C         140.4601  139.9087  167.1898 C.3     1  UNL1        0.0272
      8 C         141.9117  139.5634  167.3436 C.3     1  UNL1        0.0204
      9 C         139.7861  139.7408  165.8602 C.ar    1  UNL1        0.0050
     10 C         138.6815  140.6719  165.4565 C.ar    1  UNL1       -0.0021
     11 C         138.0075  140.5040  164.1271 C.ar    1  UNL1        0.0037
     12 C         138.4380  139.4050  163.2014 C.ar    1  UNL1        0.0736
     13 C         139.5425  138.4739  163.6051 C.ar    1  UNL1        0.0332
     14 C         140.2165  138.6419  164.9345 C.ar    1  UNL1        0.1361
     15 F         141.3211  137.7107  165.3383 F       1  UNL1       -0.2045
     16 C         137.7639  139.2372  161.8720 C.3     1  UNL1        0.4186
     17 F         137.1199  139.4337  160.5315 F       1  UNL1       -0.1659
     18 F         137.5601  137.7559  161.7527 F       1  UNL1       -0.1659
     19 F         137.8057  140.7220  161.6633 F       1  UNL1       -0.1659
     20 C         140.4743  139.8657  167.0394 C.3     1  UNL1        0.0729
     21 C         140.7723  140.8205  165.9215 C.3     1  UNL1        0.0294
     22 C         141.4505  142.1265  166.2115 C.3     1  UNL1        0.0666
     23 S         142.7797  142.4359  165.5890 S.3     1  UNL1       -0.0756
     24 C         142.3509  144.3649  162.2484 C.ar    1  UNL1        0.2029
     25 N         143.5876  145.0106  162.7991 N.ar    1  UNL1       -0.1250
     26 N         143.8989  144.3666  164.1176 N.ar    1  UNL1       -0.1220
     27 C         142.8544  143.3229  164.3817 C.ar    1  UNL1        0.1933
     28 N         141.8977  143.3218  163.2263 N.ar    1  UNL1       -0.2860
     29 C         140.6587  142.6158  162.7611 C.3     1  UNL1        0.1341
     30 C         139.6237  146.1209  161.8902 C.3     1  UNL1        0.0556
     31 C         140.4308  145.5101  160.7832 C.ar    1  UNL1        0.1001
     32 N         140.1260  145.5991  159.3172 N.ar    1  UNL1       -0.2085
     33 C         141.1911  144.8470  158.5757 C.ar    1  UNL1        0.2849
     34 O         142.1542  144.2931  159.5835 O.2     1  UNL1       -0.4283
     35 C         141.6843  144.7029  160.9478 C.ar    1  UNL1        0.1964
@<TRIPOS>BOND
     1    30    31    1
     2    31    32   ar
     3    32    33   ar
     4    33    34   ar
     5    34    35   ar
     6    35    24    1
     7    24    25   ar
     8    25    26   ar
     9    26    27   ar
    10    27    23    1
    11    23    22    1
    12    22    21    1
    13    21    20    1
    14    20     1    1
    15     1     2    1
    16     2     3    1
    17     3     4    1
    18     5     4    1
    19     5     6    1
    20     6     7    1
    21     7     9    1
    22     9    10   ar
    23    10    11   ar
    24    11    12   ar
    25    12    16    1
    26    16    17    1
    27    16    18    1
    28    16    19    1
    29    12    13   ar
    30    13    14   ar
    31    14    15    1
    32     7     8    1
    33    27    28   ar
    34    28    29    1
    35    35    31   ar
    36    28    24   ar
    37     5     1    1
    38    14     9   ar
    39     8     2    1
