@<TRIPOS>MOLECULE
*****
 36 39 0 0 0
SMALL
GASTEIGER

@<TRIPOS>ATOM
      1 N         142.4855  141.6790  163.5326 N.am    1  UNL1       -0.3006
      2 C         142.9922  143.0021  163.0399 C.2     1  UNL1        0.2451
      3 O         144.3570  143.4786  163.4400 O.2     1  UNL1       -0.2729
      4 H         141.5897  141.3662  163.2701 H       1  UNL1        0.1497
      5 C         142.1341  143.8486  162.1471 C.3     1  UNL1        0.1751
      6 C         142.2398  143.9431  160.6538 C.ar    1  UNL1        0.0089
      7 C         143.1558  143.2798  159.6685 C.ar    1  UNL1       -0.0021
      8 C         143.0226  143.5755  158.2040 C.ar    1  UNL1       -0.0003
      9 C         141.9734  144.5345  157.7248 C.ar    1  UNL1        0.0001
     10 C         141.0574  145.1978  158.7102 C.ar    1  UNL1        0.0043
     11 C         141.1906  144.9021  160.1747 C.ar    1  UNL1        0.0516
     12 C         140.4365  145.4003  161.3718 C.2     1  UNL1        0.2493
     13 O         139.2990  146.3779  161.3532 O.2     1  UNL1       -0.2699
     14 N         141.0196  144.7492  162.5909 N.am    1  UNL1       -0.2657
     15 C         140.5676  144.9614  164.0053 C.3     1  UNL1        0.1007
     16 C         139.2293  144.4502  164.4497 C.3     1  UNL1        0.0673
     17 C         139.0628  143.0057  164.8180 C.ar    1  UNL1        0.0607
     18 C         139.7212  142.4659  166.0531 C.ar    1  UNL1        0.0148
     19 C         139.5546  141.0214  166.4213 C.ar    1  UNL1        0.0028
     20 C         138.7297  140.1167  165.5546 C.ar    1  UNL1        0.0207
     21 C         138.0714  140.6566  164.3197 C.ar    1  UNL1        0.0984
     22 N         138.2379  142.1011  163.9514 N.ar    1  UNL1       -0.2481
     23 C         144.4111  139.9610  163.8330 C.3     1  UNL1        0.0262
     24 C         143.3437  140.8325  164.4254 C.3     1  UNL1        0.0942
     25 C         143.1343  140.8576  165.9105 C.ar    1  UNL1       -0.0043
     26 C         143.2088  142.1567  166.6566 C.ar    1  UNL1        0.0004
     27 C         142.9995  142.1818  168.1417 C.ar    1  UNL1        0.0366
     28 C         142.7157  140.9077  168.8807 C.ar    1  UNL1        0.1390
     29 C         142.6412  139.6086  168.1346 C.ar    1  UNL1        0.0366
     30 C         142.8505  139.5835  166.6495 C.ar    1  UNL1        0.0004
     31 O         142.5063  140.9328  170.3658 O.3     1  UNL1       -0.4666
     32 C         141.1771  141.3400  170.9291 C.3     1  UNL1        0.3081
     33 C         139.9105  140.8705  170.2769 C.3     1  UNL1        0.4380
     34 F         138.6439  140.4010  169.6247 F       1  UNL1       -0.1663
     35 F         140.0968  139.5147  170.8912 F       1  UNL1       -0.1663
     36 F         139.7243  142.2262  169.6627 F       1  UNL1       -0.1663
@<TRIPOS>BOND
     1    23    24    1
     2    24     1    1
     3     1     2   am
     4     2     3    2
     5     2     5    1
     6     5     6    1
     7     6     7   ar
     8     7     8   ar
     9     8     9   ar
    10     9    10   ar
    11    10    11   ar
    12    11    12    1
    13    12    13    2
    14    12    14   am
    15    14    15    1
    16    15    16    1
    17    16    17    1
    18    17    18   ar
    19    18    19   ar
    20    19    20   ar
    21    20    21   ar
    22    21    22   ar
    23    24    25    1
    24    25    26   ar
    25    26    27   ar
    26    27    28   ar
    27    28    31    1
    28    31    32    1
    29    32    33    1
    30    33    34    1
    31    33    35    1
    32    33    36    1
    33    28    29   ar
    34    29    30   ar
    35    14     5    1
    36    22    17   ar
    37    30    25   ar
    38    11     6   ar
    39     1     4    1
@<TRIPOS>MOLECULE
*****
 36 39 0 0 0
SMALL
GASTEIGER

@<TRIPOS>ATOM
      1 N         140.2921  140.1417  163.6110 N.am    1  UNL1       -0.3006
      2 C         139.2311  141.0463  163.0577 C.2     1  UNL1        0.2451
      3 O         137.8243  140.9528  163.5696 O.2     1  UNL1       -0.2729
      4 H         141.2155  140.2030  163.2751 H       1  UNL1        0.1497
      5 C         139.5770  142.0443  161.9927 C.3     1  UNL1        0.1751
      6 C         140.2548  141.7431  160.6889 C.ar    1  UNL1        0.0089
      7 C         140.7565  140.4622  160.0909 C.ar    1  UNL1       -0.0021
      8 C         141.4060  140.4696  158.7388 C.ar    1  UNL1       -0.0003
      9 C         141.5537  141.7579  157.9848 C.ar    1  UNL1        0.0001
     10 C         141.0520  143.0387  158.5828 C.ar    1  UNL1        0.0043
     11 C         140.4025  143.0313  159.9348 C.ar    1  UNL1        0.0516
     12 C         139.8160  144.1287  160.7726 C.2     1  UNL1        0.2493
     13 O         139.7511  145.5811  160.4033 O.2     1  UNL1       -0.2699
     14 N         139.3058  143.5187  162.0444 N.am    1  UNL1       -0.2657
     15 C         138.6411  144.2539  163.1703 C.3     1  UNL1        0.1007
     16 C         139.4481  144.7044  164.3517 C.3     1  UNL1        0.0673
     17 C         140.9175  144.4091  164.4129 C.ar    1  UNL1        0.0607
     18 C         141.4092  143.1988  165.1503 C.ar    1  UNL1        0.0148
     19 C         142.8786  142.9036  165.2114 C.ar    1  UNL1        0.0028
     20 C         143.8562  143.8185  164.5353 C.ar    1  UNL1        0.0207
     21 C         143.3645  145.0287  163.7980 C.ar    1  UNL1        0.0984
     22 N         141.8951  145.3240  163.7368 N.ar    1  UNL1       -0.2481
     23 C         139.3542  137.8184  164.2981 C.3     1  UNL1        0.0262
     24 C         139.9462  139.1437  164.6761 C.3     1  UNL1        0.0942
     25 C         140.1924  139.4711  166.1190 C.ar    1  UNL1       -0.0043
     26 C         139.0354  139.6238  167.0614 C.ar    1  UNL1        0.0004
     27 C         139.2816  139.9512  168.5044 C.ar    1  UNL1        0.0366
     28 C         140.6847  140.1258  169.0050 C.ar    1  UNL1        0.1390
     29 C         141.8417  139.9731  168.0627 C.ar    1  UNL1        0.0366
     30 C         141.5955  139.6457  166.6197 C.ar    1  UNL1        0.0004
     31 O         140.9309  140.4532  170.4480 O.3     1  UNL1       -0.4666
     32 C         141.2495  141.8617  170.8537 C.3     1  UNL1        0.3081
     33 C         140.7023  143.0123  170.0621 C.3     1  UNL1        0.4380
     34 F         140.1550  144.1629  169.2704 F       1  UNL1       -0.1663
     35 F         139.3374  142.7521  170.6275 F       1  UNL1       -0.1663
     36 F         142.0671  143.2724  169.4968 F       1  UNL1       -0.1663
@<TRIPOS>BOND
     1    23    24    1
     2    24     1    1
     3     1     2   am
     4     2     3    2
     5     2     5    1
     6     5     6    1
     7     6     7   ar
     8     7     8   ar
     9     8     9   ar
    10     9    10   ar
    11    10    11   ar
    12    11    12    1
    13    12    13    2
    14    12    14   am
    15    14    15    1
    16    15    16    1
    17    16    17    1
    18    17    18   ar
    19    18    19   ar
    20    19    20   ar
    21    20    21   ar
    22    21    22   ar
    23    24    25    1
    24    25    26   ar
    25    26    27   ar
    26    27    28   ar
    27    28    31    1
    28    31    32    1
    29    32    33    1
    30    33    34    1
    31    33    35    1
    32    33    36    1
    33    28    29   ar
    34    29    30   ar
    35    14     5    1
    36    22    17   ar
    37    30    25   ar
    38    11     6   ar
    39     1     4    1
@<TRIPOS>MOLECULE
*****
 36 39 0 0 0
SMALL
GASTEIGER

@<TRIPOS>ATOM
      1 N         141.8957  139.7068  163.3666 N.am    1  UNL1       -0.3006
      2 C         141.1070  138.5915  162.7467 C.2     1  UNL1        0.2451
      3 O         141.0732  137.2426  163.4018 O.2     1  UNL1       -0.2729
      4 H         141.9179  140.5921  162.9366 H       1  UNL1        0.1497
      5 C         140.3522  138.8252  161.4717 C.3     1  UNL1        0.1751
      6 C         140.8706  138.5886  160.0842 C.ar    1  UNL1        0.0089
      7 C         142.1907  138.0878  159.5778 C.ar    1  UNL1       -0.0021
      8 C         142.4255  137.9522  158.1025 C.ar    1  UNL1       -0.0003
      9 C         141.3402  138.3173  157.1336 C.ar    1  UNL1        0.0001
     10 C         140.0200  138.8181  157.6400 C.ar    1  UNL1        0.0043
     11 C         139.7853  138.9537  159.1153 C.ar    1  UNL1        0.0516
     12 C         138.5961  139.4160  159.9040 C.2     1  UNL1        0.2493
     13 O         137.2864  139.8768  159.3361 O.2     1  UNL1       -0.2699
     14 N         138.9464  139.3366  161.3604 N.am    1  UNL1       -0.2657
     15 C         138.0487  139.7040  162.5045 C.3     1  UNL1        0.1007
     16 C         137.6351  141.1319  162.7047 C.3     1  UNL1        0.0673
     17 C         138.5589  142.0905  163.3957 C.ar    1  UNL1        0.0607
     18 C         138.0649  142.9046  164.5547 C.ar    1  UNL1        0.0148
     19 C         138.9888  143.8633  165.2458 C.ar    1  UNL1        0.0028
     20 C         140.4066  144.0077  164.7778 C.ar    1  UNL1        0.0207
     21 C         140.9006  143.1936  163.6189 C.ar    1  UNL1        0.0984
     22 N         139.9767  142.2350  162.9278 N.ar    1  UNL1       -0.2481
     23 C         144.0440  138.9198  164.5974 C.3     1  UNL1        0.0262
     24 C         142.6505  139.4730  164.6416 C.3     1  UNL1        0.0942
     25 C         142.0118  139.7925  165.9607 C.ar    1  UNL1       -0.0043
     26 C         142.7853  139.6086  167.2327 C.ar    1  UNL1        0.0004
     27 C         142.1465  139.9281  168.5517 C.ar    1  UNL1        0.0366
     28 C         140.7343  140.4314  168.5988 C.ar    1  UNL1        0.1390
     29 C         139.9608  140.6154  167.3268 C.ar    1  UNL1        0.0366
     30 C         140.5996  140.2959  166.0078 C.ar    1  UNL1        0.0004
     31 O         140.0956  140.7509  169.9179 O.3     1  UNL1       -0.4666
     32 C         140.6227  141.8804  170.7524 C.3     1  UNL1        0.3081
     33 C         140.3871  143.2998  170.3284 C.3     1  UNL1        0.4380
     34 F         140.1514  144.7192  169.9043 F       1  UNL1       -0.1663
     35 F         139.0936  143.3119  171.0880 F       1  UNL1       -0.1663
     36 F         141.6805  143.2875  169.5688 F       1  UNL1       -0.1663
@<TRIPOS>BOND
     1    23    24    1
     2    24     1    1
     3     1     2   am
     4     2     3    2
     5     2     5    1
     6     5     6    1
     7     6     7   ar
     8     7     8   ar
     9     8     9   ar
    10     9    10   ar
    11    10    11   ar
    12    11    12    1
    13    12    13    2
    14    12    14   am
    15    14    15    1
    16    15    16    1
    17    16    17    1
    18    17    18   ar
    19    18    19   ar
    20    19    20   ar
    21    20    21   ar
    22    21    22   ar
    23    24    25    1
    24    25    26   ar
    25    26    27   ar
    26    27    28   ar
    27    28    31    1
    28    31    32    1
    29    32    33    1
    30    33    34    1
    31    33    35    1
    32    33    36    1
    33    28    29   ar
    34    29    30   ar
    35    14     5    1
    36    22    17   ar
    37    30    25   ar
    38    11     6   ar
    39     1     4    1
@<TRIPOS>MOLECULE
*****
 36 39 0 0 0
SMALL
GASTEIGER

@<TRIPOS>ATOM
      1 N         142.3425  139.8832  163.5544 N.am    1  UNL1       -0.3006
      2 C         141.5282  140.9186  162.8366 C.2     1  UNL1        0.2451
      3 O         141.8627  142.3729  162.9876 O.2     1  UNL1       -0.2729
      4 H         142.1230  138.9287  163.4553 H       1  UNL1        0.1497
      5 C         140.3795  140.4994  161.9678 C.3     1  UNL1        0.1751
      6 C         140.2086  140.8263  160.5139 C.ar    1  UNL1        0.0089
      7 C         141.0571  141.6065  159.5541 C.ar    1  UNL1       -0.0021
      8 C         140.6205  141.7691  158.1283 C.ar    1  UNL1       -0.0003
      9 C         139.3355  141.1515  157.6623 C.ar    1  UNL1        0.0001
     10 C         138.4870  140.3713  158.6221 C.ar    1  UNL1        0.0043
     11 C         138.9235  140.2087  160.0479 C.ar    1  UNL1        0.0516
     12 C         138.3003  139.5001  161.2138 C.2     1  UNL1        0.2493
     13 O         137.0046  138.7445  161.1963 O.2     1  UNL1       -0.2699
     14 N         139.2001  139.6798  162.4004 N.am    1  UNL1       -0.2657
     15 C         138.9623  139.1354  163.7778 C.3     1  UNL1        0.1007
     16 C         138.1982  139.9454  164.7828 C.3     1  UNL1        0.0673
     17 C         138.5150  141.3994  164.9711 C.ar    1  UNL1        0.0607
     18 C         139.6939  141.8084  165.8037 C.ar    1  UNL1        0.0148
     19 C         140.0107  143.2624  165.9921 C.ar    1  UNL1        0.0028
     20 C         139.1487  144.3074  165.3479 C.ar    1  UNL1        0.0207
     21 C         137.9699  143.8984  164.5154 C.ar    1  UNL1        0.0984
     22 N         137.6531  142.4444  164.3270 N.ar    1  UNL1       -0.2481
     23 C         144.8672  140.4261  163.8390 C.3     1  UNL1        0.0262
     24 C         143.4912  140.3024  164.4232 C.3     1  UNL1        0.0942
     25 C         143.2639  140.5979  165.8762 C.ar    1  UNL1       -0.0043
     26 C         143.4282  141.9969  166.3917 C.ar    1  UNL1        0.0004
     27 C         143.2009  142.2924  167.8446 C.ar    1  UNL1        0.0366
     28 C         142.8092  141.1888  168.7820 C.ar    1  UNL1        0.1390
     29 C         142.6449  139.7898  168.2665 C.ar    1  UNL1        0.0366
     30 C         142.8722  139.4943  166.8136 C.ar    1  UNL1        0.0004
     31 O         142.5819  141.4843  170.2349 O.3     1  UNL1       -0.4666
     32 C         141.2629  142.0339  170.6911 C.3     1  UNL1        0.3081
     33 C         140.5918  143.1218  169.9062 C.3     1  UNL1        0.4380
     34 F         139.9208  144.2099  169.1213 F       1  UNL1       -0.1663
     35 F         141.7069  144.0621  170.2564 F       1  UNL1       -0.1663
     36 F         139.4769  142.1815  169.5561 F       1  UNL1       -0.1663
@<TRIPOS>BOND
     1    23    24    1
     2    24     1    1
     3     1     2   am
     4     2     3    2
     5     2     5    1
     6     5     6    1
     7     6     7   ar
     8     7     8   ar
     9     8     9   ar
    10     9    10   ar
    11    10    11   ar
    12    11    12    1
    13    12    13    2
    14    12    14   am
    15    14    15    1
    16    15    16    1
    17    16    17    1
    18    17    18   ar
    19    18    19   ar
    20    19    20   ar
    21    20    21   ar
    22    21    22   ar
    23    24    25    1
    24    25    26   ar
    25    26    27   ar
    26    27    28   ar
    27    28    31    1
    28    31    32    1
    29    32    33    1
    30    33    34    1
    31    33    35    1
    32    33    36    1
    33    28    29   ar
    34    29    30   ar
    35    14     5    1
    36    22    17   ar
    37    30    25   ar
    38    11     6   ar
    39     1     4    1
@<TRIPOS>MOLECULE
*****
 36 39 0 0 0
SMALL
GASTEIGER

@<TRIPOS>ATOM
      1 N         140.5444  143.3370  165.5839 N.am    1  UNL1       -0.3006
      2 C         140.1346  141.9374  165.9353 C.2     1  UNL1        0.2451
      3 O         138.8102  141.4056  165.4738 O.2     1  UNL1       -0.2729
      4 H         141.4137  143.6861  165.8867 H       1  UNL1        0.1497
      5 C         141.0492  141.0698  166.7481 C.3     1  UNL1        0.1751
      6 C         141.1740  141.0776  168.2429 C.ar    1  UNL1        0.0089
      7 C         140.4848  141.8839  169.3035 C.ar    1  UNL1       -0.0021
      8 C         140.8231  141.6673  170.7487 C.ar    1  UNL1       -0.0003
      9 C         141.8507  140.6444  171.1333 C.ar    1  UNL1        0.0001
     10 C         142.5399  139.8382  170.0727 C.ar    1  UNL1        0.0043
     11 C         142.2016  140.0547  168.6276 C.ar    1  UNL1        0.0516
     12 C         142.7118  139.4148  167.3705 C.2     1  UNL1        0.2493
     13 O         143.7517  138.3368  167.2893 O.2     1  UNL1       -0.2699
     14 N         141.9996  140.0422  166.2089 N.am    1  UNL1       -0.2657
     15 C         142.2022  139.7017  164.7622 C.3     1  UNL1        0.1007
     16 C         143.3954  140.2351  164.0261 C.3     1  UNL1        0.0673
     17 C         143.5221  141.7077  163.7703 C.ar    1  UNL1        0.0607
     18 C         143.9478  142.6272  164.8764 C.ar    1  UNL1        0.0148
     19 C         144.0745  144.0998  164.6206 C.ar    1  UNL1        0.0028
     20 C         143.7755  144.6529  163.2587 C.ar    1  UNL1        0.0207
     21 C         143.3498  143.7334  162.1527 C.ar    1  UNL1        0.0984
     22 N         143.2231  142.2608  162.4085 N.ar    1  UNL1       -0.2481
     23 C         138.5416  144.9860  165.4457 C.3     1  UNL1        0.0262
     24 C         139.6298  144.2046  164.7710 C.3     1  UNL1        0.0942
     25 C         139.8033  144.2906  163.2836 C.ar    1  UNL1       -0.0043
     26 C         140.1112  145.6099  162.6395 C.ar    1  UNL1        0.0004
     27 C         140.2847  145.6960  161.1521 C.ar    1  UNL1        0.0366
     28 C         140.1504  144.4628  160.3087 C.ar    1  UNL1        0.1390
     29 C         139.8426  143.1436  160.9528 C.ar    1  UNL1        0.0366
     30 C         139.6691  143.0575  162.4402 C.ar    1  UNL1        0.0004
     31 O         140.3240  144.5489  158.8213 O.3     1  UNL1       -0.4666
     32 C         140.3812  145.8887  158.1492 C.3     1  UNL1        0.3081
     33 C         140.9068  146.0035  156.7490 C.3     1  UNL1        0.4380
     34 F         141.4324  146.1183  155.3487 F       1  UNL1       -0.1663
     35 F         139.5369  145.7133  156.2111 F       1  UNL1       -0.1663
     36 F         142.2766  146.2937  157.2870 F       1  UNL1       -0.1663
@<TRIPOS>BOND
     1    23    24    1
     2    24     1    1
     3     1     2   am
     4     2     3    2
     5     2     5    1
     6     5     6    1
     7     6     7   ar
     8     7     8   ar
     9     8     9   ar
    10     9    10   ar
    11    10    11   ar
    12    11    12    1
    13    12    13    2
    14    12    14   am
    15    14    15    1
    16    15    16    1
    17    16    17    1
    18    17    18   ar
    19    18    19   ar
    20    19    20   ar
    21    20    21   ar
    22    21    22   ar
    23    24    25    1
    24    25    26   ar
    25    26    27   ar
    26    27    28   ar
    27    28    31    1
    28    31    32    1
    29    32    33    1
    30    33    34    1
    31    33    35    1
    32    33    36    1
    33    28    29   ar
    34    29    30   ar
    35    14     5    1
    36    22    17   ar
    37    30    25   ar
    38    11     6   ar
    39     1     4    1
@<TRIPOS>MOLECULE
*****
 36 39 0 0 0
SMALL
GASTEIGER

@<TRIPOS>ATOM
      1 N         140.0567  141.4014  163.5207 N.am    1  UNL1       -0.3006
      2 C         139.5475  140.1203  162.9292 C.2     1  UNL1        0.2451
      3 O         138.2505  139.5374  163.4065 O.2     1  UNL1       -0.2729
      4 H         140.9080  141.7840  163.2074 H       1  UNL1        0.1497
      5 C         140.3353  139.4224  161.8604 C.3     1  UNL1        0.1751
      6 C         140.0625  139.4769  160.3864 C.ar    1  UNL1        0.0089
      7 C         139.0092  140.1838  159.5861 C.ar    1  UNL1       -0.0021
      8 C         138.9861  140.0495  158.0923 C.ar    1  UNL1       -0.0003
      9 C         140.0164  139.2082  157.3989 C.ar    1  UNL1        0.0001
     10 C         141.0697  138.5012  158.1993 C.ar    1  UNL1        0.0043
     11 C         141.0928  138.6356  159.6930 C.ar    1  UNL1        0.0516
     12 C         142.0022  138.0612  160.7385 C.2     1  UNL1        0.2493
     13 O         143.1741  137.1589  160.4883 O.2     1  UNL1       -0.2699
     14 N         141.5341  138.5474  162.0780 N.am    1  UNL1       -0.2657
     15 C         142.1555  138.2168  163.4026 C.3     1  UNL1        0.1007
     16 C         143.4030  138.9237  163.8431 C.3     1  UNL1        0.0673
     17 C         143.3575  140.3842  164.1823 C.ar    1  UNL1        0.0607
     18 C         143.3643  140.8214  165.6172 C.ar    1  UNL1        0.0148
     19 C         143.3188  142.2819  165.9564 C.ar    1  UNL1        0.0028
     20 C         143.2664  143.3050  164.8607 C.ar    1  UNL1        0.0207
     21 C         143.2595  142.8677  163.4259 C.ar    1  UNL1        0.0984
     22 N         143.3051  141.4073  163.0867 N.ar    1  UNL1       -0.2481
     23 C         138.1249  142.9940  164.2144 C.3     1  UNL1        0.0262
     24 C         139.2689  142.0993  164.5894 C.3     1  UNL1        0.0942
     25 C         139.6252  141.9025  166.0332 C.ar    1  UNL1       -0.0043
     26 C         140.0326  143.0774  166.8720 C.ar    1  UNL1        0.0004
     27 C         140.3889  142.8807  168.3157 C.ar    1  UNL1        0.0366
     28 C         140.3376  141.5090  168.9206 C.ar    1  UNL1        0.1390
     29 C         139.9302  140.3341  168.0818 C.ar    1  UNL1        0.0366
     30 C         139.5739  140.5309  166.6381 C.ar    1  UNL1        0.0004
     31 O         140.6939  141.3123  170.3644 O.3     1  UNL1       -0.4666
     32 C         142.1338  141.2404  170.7785 C.3     1  UNL1        0.3081
     33 C         143.1898  141.8932  169.9367 C.3     1  UNL1        0.4380
     34 F         144.2459  142.5460  169.0948 F       1  UNL1       -0.1663
     35 F         143.0265  143.1638  170.7171 F       1  UNL1       -0.1663
     36 F         143.3530  140.6226  169.1563 F       1  UNL1       -0.1663
@<TRIPOS>BOND
     1    23    24    1
     2    24     1    1
     3     1     2   am
     4     2     3    2
     5     2     5    1
     6     5     6    1
     7     6     7   ar
     8     7     8   ar
     9     8     9   ar
    10     9    10   ar
    11    10    11   ar
    12    11    12    1
    13    12    13    2
    14    12    14   am
    15    14    15    1
    16    15    16    1
    17    16    17    1
    18    17    18   ar
    19    18    19   ar
    20    19    20   ar
    21    20    21   ar
    22    21    22   ar
    23    24    25    1
    24    25    26   ar
    25    26    27   ar
    26    27    28   ar
    27    28    31    1
    28    31    32    1
    29    32    33    1
    30    33    34    1
    31    33    35    1
    32    33    36    1
    33    28    29   ar
    34    29    30   ar
    35    14     5    1
    36    22    17   ar
    37    30    25   ar
    38    11     6   ar
    39     1     4    1
@<TRIPOS>MOLECULE
*****
 36 39 0 0 0
SMALL
GASTEIGER

@<TRIPOS>ATOM
      1 N         140.3490  140.9258  163.4157 N.am    1  UNL1       -0.3006
      2 C         140.8011  142.1299  162.6438 C.2     1  UNL1        0.2451
      3 O         140.1620  143.4638  162.8929 O.2     1  UNL1       -0.2729
      4 H         140.7684  140.0502  163.2522 H       1  UNL1        0.1497
      5 C         141.8924  142.0000  161.6228 C.3     1  UNL1        0.1751
      6 C         141.8481  141.1486  160.3886 C.ar    1  UNL1        0.0089
      7 C         140.7923  140.2388  159.8342 C.ar    1  UNL1       -0.0021
      8 C         141.0362  139.5013  158.5510 C.ar    1  UNL1       -0.0003
      9 C         142.3359  139.6737  157.8222 C.ar    1  UNL1        0.0001
     10 C         143.3917  140.5836  158.3766 C.ar    1  UNL1        0.0043
     11 C         143.1478  141.3210  159.6598 C.ar    1  UNL1        0.0516
     12 C         143.9952  142.2789  160.4436 C.2     1  UNL1        0.2493
     13 O         145.3762  142.7367  160.0783 O.2     1  UNL1       -0.2699
     14 N         143.2193  142.6985  161.6569 N.am    1  UNL1       -0.2657
     15 C         143.6881  143.6496  162.7178 C.3     1  UNL1        0.1007
     16 C         144.5332  143.1506  163.8521 C.3     1  UNL1        0.0673
     17 C         144.3334  141.7615  164.3817 C.ar    1  UNL1        0.0607
     18 C         143.3014  141.5033  165.4393 C.ar    1  UNL1        0.0148
     19 C         143.1016  140.1142  165.9689 C.ar    1  UNL1        0.0028
     20 C         143.9337  138.9833  165.4409 C.ar    1  UNL1        0.0207
     21 C         144.9656  139.2415  164.3834 C.ar    1  UNL1        0.0984
     22 N         145.1655  140.6306  163.8538 N.ar    1  UNL1       -0.2481
     23 C         137.8215  140.9548  164.0161 C.3     1  UNL1        0.0262
     24 C         139.2577  141.0557  164.4366 C.3     1  UNL1        0.0942
     25 C         139.6028  141.2865  165.8780 C.ar    1  UNL1       -0.0043
     26 C         140.0982  142.6301  166.3248 C.ar    1  UNL1        0.0004
     27 C         140.4433  142.8609  167.7661 C.ar    1  UNL1        0.0366
     28 C         140.2930  141.7482  168.7608 C.ar    1  UNL1        0.1390
     29 C         139.7976  140.4047  168.3141 C.ar    1  UNL1        0.0366
     30 C         139.4525  140.1739  166.8727 C.ar    1  UNL1        0.0004
     31 O         140.6381  141.9791  170.2022 O.3     1  UNL1       -0.4666
     32 C         141.9921  141.5939  170.7202 C.3     1  UNL1        0.3081
     33 C         143.2281  142.1097  170.0449 C.3     1  UNL1        0.4380
     34 F         144.4642  142.6255  169.3694 F       1  UNL1       -0.1663
     35 F         143.3925  140.7950  169.3416 F       1  UNL1       -0.1663
     36 F         143.0637  143.4244  170.7481 F       1  UNL1       -0.1663
@<TRIPOS>BOND
     1    23    24    1
     2    24     1    1
     3     1     2   am
     4     2     3    2
     5     2     5    1
     6     5     6    1
     7     6     7   ar
     8     7     8   ar
     9     8     9   ar
    10     9    10   ar
    11    10    11   ar
    12    11    12    1
    13    12    13    2
    14    12    14   am
    15    14    15    1
    16    15    16    1
    17    16    17    1
    18    17    18   ar
    19    18    19   ar
    20    19    20   ar
    21    20    21   ar
    22    21    22   ar
    23    24    25    1
    24    25    26   ar
    25    26    27   ar
    26    27    28   ar
    27    28    31    1
    28    31    32    1
    29    32    33    1
    30    33    34    1
    31    33    35    1
    32    33    36    1
    33    28    29   ar
    34    29    30   ar
    35    14     5    1
    36    22    17   ar
    37    30    25   ar
    38    11     6   ar
    39     1     4    1
@<TRIPOS>MOLECULE
*****
 36 39 0 0 0
SMALL
GASTEIGER

@<TRIPOS>ATOM
      1 N         141.7732  143.0933  164.9967 N.am    1  UNL1       -0.3006
      2 C         142.0738  141.7555  165.6050 C.2     1  UNL1        0.2451
      3 O         143.1374  140.8823  165.0082 O.2     1  UNL1       -0.2729
      4 H         141.0751  143.6665  165.3884 H       1  UNL1        0.1497
      5 C         141.3109  141.2911  166.8101 C.3     1  UNL1        0.1751
      6 C         141.6157  141.6430  168.2361 C.ar    1  UNL1        0.0089
      7 C         142.6849  142.4951  168.8531 C.ar    1  UNL1       -0.0021
      8 C         142.7408  142.6668  170.3421 C.ar    1  UNL1       -0.0003
      9 C         141.7276  141.9864  171.2142 C.ar    1  UNL1        0.0001
     10 C         140.6584  141.1344  170.5972 C.ar    1  UNL1        0.0043
     11 C         140.6024  140.9627  169.1081 C.ar    1  UNL1        0.0516
     12 C         139.6715  140.1903  168.2211 C.2     1  UNL1        0.2493
     13 O         138.5071  139.3606  168.6747 O.2     1  UNL1       -0.2699
     14 N         140.1093  140.3933  166.8009 N.am    1  UNL1       -0.2657
     15 C         139.4597  139.8022  165.5849 C.3     1  UNL1        0.1007
     16 C         138.1872  140.3918  165.0529 C.3     1  UNL1        0.0673
     17 C         138.2196  141.6858  164.2949 C.ar    1  UNL1        0.0607
     18 C         137.8821  141.7076  162.8335 C.ar    1  UNL1        0.0148
     19 C         137.9145  143.0016  162.0755 C.ar    1  UNL1        0.0028
     20 C         138.2845  144.2738  162.7789 C.ar    1  UNL1        0.0207
     21 C         138.6220  144.2520  164.2403 C.ar    1  UNL1        0.0984
     22 N         138.5896  142.9580  164.9982 N.ar    1  UNL1       -0.2481
     23 C         143.8693  144.2244  163.9591 C.3     1  UNL1        0.0262
     24 C         142.5361  143.5578  163.7916 C.3     1  UNL1        0.0942
     25 C         141.9658  143.3555  162.4190 C.ar    1  UNL1       -0.0043
     26 C         141.6089  141.9758  161.9510 C.ar    1  UNL1        0.0004
     27 C         141.0386  141.7736  160.5784 C.ar    1  UNL1        0.0366
     28 C         140.8252  142.9511  159.6740 C.ar    1  UNL1        0.1390
     29 C         141.1821  144.3308  160.1421 C.ar    1  UNL1        0.0366
     30 C         141.7524  144.5330  161.5146 C.ar    1  UNL1        0.0004
     31 O         140.2549  142.7488  158.3015 O.3     1  UNL1       -0.4666
     32 C         138.8045  143.0307  158.0429 C.3     1  UNL1        0.3081
     33 C         137.8745  141.9091  157.6860 C.3     1  UNL1        0.4380
     34 F         136.9446  140.7876  157.3290 F       1  UNL1       -0.1663
     35 F         137.9948  141.3661  159.0791 F       1  UNL1       -0.1663
     36 F         137.7544  142.4522  156.2929 F       1  UNL1       -0.1663
@<TRIPOS>BOND
     1    23    24    1
     2    24     1    1
     3     1     2   am
     4     2     3    2
     5     2     5    1
     6     5     6    1
     7     6     7   ar
     8     7     8   ar
     9     8     9   ar
    10     9    10   ar
    11    10    11   ar
    12    11    12    1
    13    12    13    2
    14    12    14   am
    15    14    15    1
    16    15    16    1
    17    16    17    1
    18    17    18   ar
    19    18    19   ar
    20    19    20   ar
    21    20    21   ar
    22    21    22   ar
    23    24    25    1
    24    25    26   ar
    25    26    27   ar
    26    27    28   ar
    27    28    31    1
    28    31    32    1
    29    32    33    1
    30    33    34    1
    31    33    35    1
    32    33    36    1
    33    28    29   ar
    34    29    30   ar
    35    14     5    1
    36    22    17   ar
    37    30    25   ar
    38    11     6   ar
    39     1     4    1
@<TRIPOS>MOLECULE
*****
 36 39 0 0 0
SMALL
GASTEIGER

@<TRIPOS>ATOM
      1 N         143.7566  142.0099  162.1119 N.am    1  UNL1       -0.3006
      2 C         142.8353  142.0338  160.9283 C.2     1  UNL1        0.2451
      3 O         141.7190  143.0338  160.8671 O.2     1  UNL1       -0.2729
      4 H         144.4893  141.3535  162.1521 H       1  UNL1        0.1497
      5 C         143.0303  141.0577  159.8062 C.3     1  UNL1        0.1751
      6 C         143.9207  141.2507  158.6145 C.ar    1  UNL1        0.0089
      7 C         144.8179  142.3807  158.2046 C.ar    1  UNL1       -0.0021
      8 C         145.6044  142.2894  156.9306 C.ar    1  UNL1       -0.0003
      9 C         145.4936  141.0683  156.0666 C.ar    1  UNL1        0.0001
     10 C         144.5964  139.9384  156.4766 C.ar    1  UNL1        0.0043
     11 C         143.8099  140.0296  157.7505 C.ar    1  UNL1        0.0516
     12 C         142.8511  139.0819  158.4082 C.2     1  UNL1        0.2493
     13 O         142.4453  137.7352  157.8869 O.2     1  UNL1       -0.2699
     14 N         142.3693  139.7173  159.6787 N.am    1  UNL1       -0.2657
     15 C         141.3971  139.1176  160.6510 C.3     1  UNL1        0.1007
     16 C         141.8337  138.0066  161.5593 C.3     1  UNL1        0.0673
     17 C         142.5179  138.3231  162.8561 C.ar    1  UNL1        0.0607
     18 C         141.8391  138.0134  164.1574 C.ar    1  UNL1        0.0148
     19 C         142.5233  138.3298  165.4542 C.ar    1  UNL1        0.0028
     20 C         143.8864  138.9560  165.4496 C.ar    1  UNL1        0.0207
     21 C         144.5652  139.2657  164.1484 C.ar    1  UNL1        0.0984
     22 N         143.8809  138.9493  162.8516 N.ar    1  UNL1       -0.2481
     23 C         144.0729  144.3901  163.1039 C.3     1  UNL1        0.0262
     24 C         143.5616  142.9860  163.2340 C.3     1  UNL1        0.0942
     25 C         142.8553  142.5579  164.4862 C.ar    1  UNL1       -0.0043
     26 C         143.5596  142.6353  165.8083 C.ar    1  UNL1        0.0004
     27 C         142.8533  142.2072  167.0605 C.ar    1  UNL1        0.0366
     28 C         141.4428  141.7017  166.9905 C.ar    1  UNL1        0.1390
     29 C         140.7385  141.6243  165.6684 C.ar    1  UNL1        0.0366
     30 C         141.4448  142.0524  164.4162 C.ar    1  UNL1        0.0004
     31 O         140.7365  141.2737  168.2427 O.3     1  UNL1       -0.4666
     32 C         140.9378  139.8881  168.7810 C.3     1  UNL1        0.3081
     33 C         142.0386  139.6178  169.7634 C.3     1  UNL1        0.4380
     34 F         143.1394  139.3475  170.7459 F       1  UNL1       -0.1663
     35 F         141.1775  140.1443  170.8731 F       1  UNL1       -0.1663
     36 F         142.8997  139.0914  168.6537 F       1  UNL1       -0.1663
@<TRIPOS>BOND
     1    23    24    1
     2    24     1    1
     3     1     2   am
     4     2     3    2
     5     2     5    1
     6     5     6    1
     7     6     7   ar
     8     7     8   ar
     9     8     9   ar
    10     9    10   ar
    11    10    11   ar
    12    11    12    1
    13    12    13    2
    14    12    14   am
    15    14    15    1
    16    15    16    1
    17    16    17    1
    18    17    18   ar
    19    18    19   ar
    20    19    20   ar
    21    20    21   ar
    22    21    22   ar
    23    24    25    1
    24    25    26   ar
    25    26    27   ar
    26    27    28   ar
    27    28    31    1
    28    31    32    1
    29    32    33    1
    30    33    34    1
    31    33    35    1
    32    33    36    1
    33    28    29   ar
    34    29    30   ar
    35    14     5    1
    36    22    17   ar
    37    30    25   ar
    38    11     6   ar
    39     1     4    1
