@<TRIPOS>MOLECULE
*****
 30 34 0 0 0
SMALL
GASTEIGER

@<TRIPOS>ATOM
      1 C         143.2019  142.4372  169.7749 C.ar    1  UNL1        0.1353
      2 C         142.6232  142.4181  168.3911 C.ar    1  UNL1        0.0346
      3 C         141.1657  142.1245  168.1917 C.ar    1  UNL1        0.0058
      4 C         140.2871  141.8501  169.3760 C.ar    1  UNL1        0.0208
      5 C         140.8659  141.8691  170.7598 C.ar    1  UNL1        0.1003
      6 N         142.3233  142.1627  170.9592 N.ar    1  UNL1       -0.2290
      7 C         140.5870  142.1054  166.8080 C.ar    1  UNL1        0.0188
      8 C         140.7095  143.1965  165.7859 C.ar    1  UNL1        0.0758
      9 N         139.9824  142.7572  164.5497 N.ar    1  UNL1       -0.3265
     10 C         139.4104  141.3948  164.8077 C.ar    1  UNL1        0.0793
     11 C         138.5976  140.4689  163.9521 C.ar    1  UNL1        0.1160
     12 N         138.1585  139.1403  164.4922 N.ar    1  UNL1       -0.2408
     13 C         138.5322  138.7374  165.8879 C.ar    1  UNL1        0.0990
     14 C         139.3450  139.6633  166.7435 C.ar    1  UNL1        0.0222
     15 C         139.7841  140.9919  166.2034 C.ar    1  UNL1        0.0203
     16 C         139.8503  143.5426  163.2785 C.3     1  UNL1        0.0906
     17 C         139.9136  142.8416  161.9538 C.3     1  UNL1        0.0547
     18 C         139.7816  143.6270  160.6827 C.3     1  UNL1        0.1441
     19 O         139.5862  145.1132  160.7362 O.3     1  UNL1       -0.3536
     20 C         139.5230  145.8141  162.0608 C.3     1  UNL1        0.1441
     21 C         139.6550  145.0288  163.3320 C.3     1  UNL1        0.0547
     22 O         144.0451  144.7591  171.4770 O.2     1  UNL1       -0.2525
     23 C         145.0809  143.8918  170.8253 C.2     1  UNL1        0.3055
     24 N         144.6593  142.7308  169.9742 N.am    1  UNL1       -0.2537
     25 N         146.5384  144.1854  171.0247 N.am    1  UNL1       -0.2903
     26 H         145.3392  142.1615  169.5465 H       1  UNL1        0.1578
     27 H         147.2182  143.6161  170.5969 H       1  UNL1        0.1509
     28 C         146.9599  145.3464  171.8758 C.3     1  UNL1        0.0732
     29 C         147.8612  145.9294  172.9235 C.3     1  UNL1        0.0213
     30 C         146.7888  146.7743  172.3021 C.3     1  UNL1        0.0213
@<TRIPOS>BOND
     1    22    23    2
     2    23    24   am
     3    24     1    1
     4     1     2   ar
     5     2     3   ar
     6     3     7    1
     7     7     8   ar
     8     8     9   ar
     9     9    16    1
    10    16    17    1
    11    17    18    1
    12    18    19    1
    13    19    20    1
    14    20    21    1
    15     9    10   ar
    16    10    11   ar
    17    11    12   ar
    18    12    13   ar
    19    13    14   ar
    20    14    15   ar
    21     3     4   ar
    22     4     5   ar
    23     5     6   ar
    24    23    25   am
    25    25    28    1
    26    28    29    1
    27    29    30    1
    28     6     1   ar
    29    30    28    1
    30    15     7   ar
    31    21    16    1
    32    15    10   ar
    33    24    26    1
    34    25    27    1
@<TRIPOS>MOLECULE
*****
 30 34 0 0 0
SMALL
GASTEIGER

@<TRIPOS>ATOM
      1 C         143.0224  142.0995  169.5909 C.ar    1  UNL1        0.1353
      2 C         142.4573  141.9865  168.2060 C.ar    1  UNL1        0.0346
      3 C         141.0169  141.6155  168.0117 C.ar    1  UNL1        0.0058
      4 C         140.1417  141.3576  169.2023 C.ar    1  UNL1        0.0208
      5 C         140.7069  141.4706  170.5872 C.ar    1  UNL1        0.1003
      6 N         142.1472  141.8416  170.7815 N.ar    1  UNL1       -0.2290
      7 C         140.4517  141.5025  166.6269 C.ar    1  UNL1        0.0188
      8 C         140.4577  140.2714  165.7699 C.ar    1  UNL1        0.0758
      9 N         139.7911  140.6089  164.4693 N.ar    1  UNL1       -0.3265
     10 C         139.3730  142.0485  164.5224 C.ar    1  UNL1        0.0793
     11 C         138.6734  142.9277  163.5288 C.ar    1  UNL1        0.1160
     12 N         138.3820  144.3593  163.8687 N.ar    1  UNL1       -0.2408
     13 C         138.7903  144.9117  165.2022 C.ar    1  UNL1        0.0990
     14 C         139.4900  144.0324  166.1958 C.ar    1  UNL1        0.0222
     15 C         139.7814  142.6008  165.8559 C.ar    1  UNL1        0.0203
     16 C         139.5796  139.6713  163.3176 C.3     1  UNL1        0.0906
     17 C         138.1922  139.2333  162.9521 C.3     1  UNL1        0.0547
     18 C         137.9807  138.2957  161.8005 C.3     1  UNL1        0.1441
     19 O         139.1564  137.7962  161.0144 O.3     1  UNL1       -0.3536
     20 C         140.5437  138.2342  161.3798 C.3     1  UNL1        0.1441
     21 C         140.7552  139.1717  162.5315 C.3     1  UNL1        0.0547
     22 O         143.7449  144.4855  171.2596 O.2     1  UNL1       -0.2525
     23 C         144.8240  143.6635  170.6195 C.2     1  UNL1        0.3055
     24 N         144.4628  142.4704  169.7851 N.am    1  UNL1       -0.2537
     25 N         146.2644  144.0345  170.8137 N.am    1  UNL1       -0.2903
     26 H         145.1710  141.9309  169.3650 H       1  UNL1        0.1578
     27 H         146.9727  143.4950  170.3936 H       1  UNL1        0.1509
     28 C         146.6256  145.2276  171.6481 C.3     1  UNL1        0.0732
     29 C         147.5077  145.8771  172.6728 C.3     1  UNL1        0.0213
     30 C         146.3692  146.6444  172.0685 C.3     1  UNL1        0.0213
@<TRIPOS>BOND
     1    22    23    2
     2    23    24   am
     3    24     1    1
     4     1     2   ar
     5     2     3   ar
     6     3     7    1
     7     7     8   ar
     8     8     9   ar
     9     9    16    1
    10    16    17    1
    11    17    18    1
    12    18    19    1
    13    19    20    1
    14    20    21    1
    15     9    10   ar
    16    10    11   ar
    17    11    12   ar
    18    12    13   ar
    19    13    14   ar
    20    14    15   ar
    21     3     4   ar
    22     4     5   ar
    23     5     6   ar
    24    23    25   am
    25    25    28    1
    26    28    29    1
    27    29    30    1
    28     6     1   ar
    29    30    28    1
    30    15     7   ar
    31    21    16    1
    32    15    10   ar
    33    24    26    1
    34    25    27    1
@<TRIPOS>MOLECULE
*****
 30 34 0 0 0
SMALL
GASTEIGER

@<TRIPOS>ATOM
      1 C         143.7050  142.7023  169.8175 C.ar    1  UNL1        0.1353
      2 C         143.3491  142.3869  168.3949 C.ar    1  UNL1        0.0346
      3 C         141.9146  142.1767  168.0096 C.ar    1  UNL1        0.0058
      4 C         140.8363  142.2821  169.0469 C.ar    1  UNL1        0.0208
      5 C         141.1923  142.5976  170.4695 C.ar    1  UNL1        0.1003
      6 N         142.6266  142.8077  170.8548 N.ar    1  UNL1       -0.2290
      7 C         141.5587  141.8612  166.5870 C.ar    1  UNL1        0.0188
      8 C         140.8823  142.7882  165.6210 C.ar    1  UNL1        0.0758
      9 N         140.7222  142.0632  164.3177 N.ar    1  UNL1       -0.3265
     10 C         141.2996  140.6881  164.4782 C.ar    1  UNL1        0.0793
     11 C         141.4214  139.5336  163.5284 C.ar    1  UNL1        0.1160
     12 N         142.0602  138.2542  163.9812 N.ar    1  UNL1       -0.2408
     13 C         142.5771  138.1293  165.3837 C.ar    1  UNL1        0.0990
     14 C         142.4553  139.2839  166.3335 C.ar    1  UNL1        0.0222
     15 C         141.8166  140.5633  165.8807 C.ar    1  UNL1        0.0203
     16 C         140.0949  142.6162  163.0724 C.3     1  UNL1        0.0906
     17 C         140.7555  143.7446  162.3372 C.3     1  UNL1        0.0547
     18 C         140.1282  144.2976  161.0920 C.3     1  UNL1        0.1441
     19 O         138.8403  143.7222  160.5819 O.3     1  UNL1       -0.3536
     20 C         138.1797  142.5939  161.3170 C.3     1  UNL1        0.1441
     21 C         138.8070  142.0409  162.5623 C.3     1  UNL1        0.0547
     22 O         144.4785  145.0737  171.4842 O.2     1  UNL1       -0.2525
     23 C         145.5261  144.0982  171.0361 C.2     1  UNL1        0.3055
     24 N         145.1394  142.9125  170.2027 N.am    1  UNL1       -0.2537
     25 N         146.9605  144.3084  171.4214 N.am    1  UNL1       -0.2903
     26 H         145.8269  142.2722  169.9086 H       1  UNL1        0.1578
     27 H         147.6481  143.6681  171.1273 H       1  UNL1        0.1509
     28 C         147.3473  145.4941  172.2547 C.3     1  UNL1        0.0732
     29 C         147.1237  146.9177  172.6710 C.3     1  UNL1        0.0213
     30 C         148.2406  146.1242  173.2818 C.3     1  UNL1        0.0213
@<TRIPOS>BOND
     1    22    23    2
     2    23    24   am
     3    24     1    1
     4     1     2   ar
     5     2     3   ar
     6     3     7    1
     7     7     8   ar
     8     8     9   ar
     9     9    16    1
    10    16    17    1
    11    17    18    1
    12    18    19    1
    13    19    20    1
    14    20    21    1
    15     9    10   ar
    16    10    11   ar
    17    11    12   ar
    18    12    13   ar
    19    13    14   ar
    20    14    15   ar
    21     3     4   ar
    22     4     5   ar
    23     5     6   ar
    24    23    25   am
    25    25    28    1
    26    28    29    1
    27    29    30    1
    28     6     1   ar
    29    30    28    1
    30    15     7   ar
    31    21    16    1
    32    15    10   ar
    33    24    26    1
    34    25    27    1
@<TRIPOS>MOLECULE
*****
 30 34 0 0 0
SMALL
GASTEIGER

@<TRIPOS>ATOM
      1 C         140.5379  144.9498  161.8981 C.ar    1  UNL1        0.1353
      2 C         141.0553  144.0798  163.0051 C.ar    1  UNL1        0.0346
      3 C         140.1062  143.5115  164.0183 C.ar    1  UNL1        0.0058
      4 C         138.6399  143.8133  163.9244 C.ar    1  UNL1        0.0208
      5 C         138.1226  144.6833  162.8174 C.ar    1  UNL1        0.1003
      6 N         139.0716  145.2516  161.8042 N.ar    1  UNL1       -0.2290
      7 C         140.6235  142.6415  165.1253 C.ar    1  UNL1        0.0188
      8 C         140.2595  142.7513  166.5763 C.ar    1  UNL1        0.0758
      9 N         141.0067  141.6866  167.3234 N.ar    1  UNL1       -0.3265
     10 C         141.8325  140.9189  166.3342 C.ar    1  UNL1        0.0793
     11 C         142.7696  139.7587  166.4949 C.ar    1  UNL1        0.1160
     12 N         143.4697  139.1887  165.2971 N.ar    1  UNL1       -0.2408
     13 C         143.2329  139.7789  163.9385 C.ar    1  UNL1        0.0990
     14 C         142.2959  140.9391  163.7778 C.ar    1  UNL1        0.0222
     15 C         141.5957  141.5091  164.9756 C.ar    1  UNL1        0.0203
     16 C         140.9399  141.4340  168.8005 C.3     1  UNL1        0.0906
     17 C         140.1618  140.2644  169.3269 C.3     1  UNL1        0.0547
     18 C         140.0950  140.0118  170.8040 C.3     1  UNL1        0.1441
     19 O         140.8061  140.9286  171.7546 O.3     1  UNL1       -0.3536
     20 C         141.5841  142.0980  171.2282 C.3     1  UNL1        0.1441
     21 C         141.6509  142.3507  169.7512 C.3     1  UNL1        0.0547
     22 O         140.0435  144.5163  158.9711 O.2     1  UNL1       -0.2525
     23 C         141.2397  145.3013  159.4215 C.2     1  UNL1        0.3055
     24 N         141.4870  145.5180  160.8850 N.am    1  UNL1       -0.2537
     25 N         142.1888  145.8695  158.4083 N.am    1  UNL1       -0.2903
     26 H         142.2721  146.0332  161.1806 H       1  UNL1        0.1578
     27 H         142.9740  146.3847  158.7039 H       1  UNL1        0.1509
     28 C         141.9416  145.6527  156.9448 C.3     1  UNL1        0.0732
     29 C         142.3522  145.0523  155.6329 C.3     1  UNL1        0.0213
     30 C         141.1028  145.8777  155.7217 C.3     1  UNL1        0.0213
@<TRIPOS>BOND
     1    22    23    2
     2    23    24   am
     3    24     1    1
     4     1     2   ar
     5     2     3   ar
     6     3     7    1
     7     7     8   ar
     8     8     9   ar
     9     9    16    1
    10    16    17    1
    11    17    18    1
    12    18    19    1
    13    19    20    1
    14    20    21    1
    15     9    10   ar
    16    10    11   ar
    17    11    12   ar
    18    12    13   ar
    19    13    14   ar
    20    14    15   ar
    21     3     4   ar
    22     4     5   ar
    23     5     6   ar
    24    23    25   am
    25    25    28    1
    26    28    29    1
    27    29    30    1
    28     6     1   ar
    29    30    28    1
    30    15     7   ar
    31    21    16    1
    32    15    10   ar
    33    24    26    1
    34    25    27    1
@<TRIPOS>MOLECULE
*****
 30 34 0 0 0
SMALL
GASTEIGER

@<TRIPOS>ATOM
      1 C         143.7540  142.8369  169.7964 C.ar    1  UNL1        0.1353
      2 C         143.4266  142.0189  168.5825 C.ar    1  UNL1        0.0346
      3 C         142.0030  141.8874  168.1282 C.ar    1  UNL1        0.0058
      4 C         140.9070  142.5741  168.8879 C.ar    1  UNL1        0.0208
      5 C         141.2344  143.3921  170.1018 C.ar    1  UNL1        0.1003
      6 N         142.6579  143.5236  170.5561 N.ar    1  UNL1       -0.2290
      7 C         141.6756  141.0694  166.9143 C.ar    1  UNL1        0.0188
      8 C         142.5002  140.9769  165.6648 C.ar    1  UNL1        0.0758
      9 N         141.8003  140.0505  164.7151 N.ar    1  UNL1       -0.3265
     10 C         140.5431  139.5705  165.3777 C.ar    1  UNL1        0.0793
     11 C         139.4586  138.6413  164.9190 C.ar    1  UNL1        0.1160
     12 N         138.2970  138.3419  165.8195 N.ar    1  UNL1       -0.2408
     13 C         138.2199  138.9716  167.1787 C.ar    1  UNL1        0.0990
     14 C         139.3044  139.9007  167.6374 C.ar    1  UNL1        0.0222
     15 C         140.4660  140.2002  166.7369 C.ar    1  UNL1        0.0203
     16 C         142.2744  139.6708  163.3435 C.3     1  UNL1        0.0906
     17 C         141.6593  140.3098  162.1338 C.3     1  UNL1        0.0547
     18 C         142.1333  139.9301  160.7622 C.3     1  UNL1        0.1441
     19 O         143.2224  138.9114  160.6004 O.3     1  UNL1       -0.3536
     20 C         143.8374  138.2724  161.8101 C.3     1  UNL1        0.1441
     21 C         143.3634  138.6521  163.1816 C.3     1  UNL1        0.0547
     22 O         144.5861  145.1897  171.4612 O.2     1  UNL1       -0.2525
     23 C         145.5936  144.1447  171.0830 C.2     1  UNL1        0.3055
     24 N         145.1775  142.9683  170.2506 N.am    1  UNL1       -0.2537
     25 N         147.0172  144.2762  171.5372 N.am    1  UNL1       -0.2903
     26 H         145.8387  142.2825  170.0023 H       1  UNL1        0.1578
     27 H         147.6784  143.5904  171.2890 H       1  UNL1        0.1509
     28 C         147.4332  145.4526  172.3697 C.3     1  UNL1        0.0732
     29 C         147.1609  146.8279  172.9029 C.3     1  UNL1        0.0213
     30 C         148.4262  146.1150  173.2781 C.3     1  UNL1        0.0213
@<TRIPOS>BOND
     1    22    23    2
     2    23    24   am
     3    24     1    1
     4     1     2   ar
     5     2     3   ar
     6     3     7    1
     7     7     8   ar
     8     8     9   ar
     9     9    16    1
    10    16    17    1
    11    17    18    1
    12    18    19    1
    13    19    20    1
    14    20    21    1
    15     9    10   ar
    16    10    11   ar
    17    11    12   ar
    18    12    13   ar
    19    13    14   ar
    20    14    15   ar
    21     3     4   ar
    22     4     5   ar
    23     5     6   ar
    24    23    25   am
    25    25    28    1
    26    28    29    1
    27    29    30    1
    28     6     1   ar
    29    30    28    1
    30    15     7   ar
    31    21    16    1
    32    15    10   ar
    33    24    26    1
    34    25    27    1
@<TRIPOS>MOLECULE
*****
 30 34 0 0 0
SMALL
GASTEIGER

@<TRIPOS>ATOM
      1 C         141.5186  142.2895  169.8484 C.ar    1  UNL1        0.1353
      2 C         141.5196  142.4631  168.3585 C.ar    1  UNL1        0.0346
      3 C         140.9180  141.4065  167.4799 C.ar    1  UNL1        0.0058
      4 C         140.3157  140.1764  168.0913 C.ar    1  UNL1        0.0208
      5 C         140.3147  140.0028  169.5812 C.ar    1  UNL1        0.1003
      6 N         140.9162  141.0593  170.4598 N.ar    1  UNL1       -0.2290
      7 C         140.9189  141.5802  165.9900 C.ar    1  UNL1        0.0188
      8 C         141.6022  140.6857  164.9985 C.ar    1  UNL1        0.0758
      9 N         141.3422  141.2316  163.6257 N.ar    1  UNL1       -0.3265
     10 C         140.4984  142.4634  163.7688 C.ar    1  UNL1        0.0793
     11 C         139.9344  143.4167  162.7574 C.ar    1  UNL1        0.1160
     12 N         139.1088  144.5855  163.2071 N.ar    1  UNL1       -0.2408
     13 C         138.8472  144.8010  164.6683 C.ar    1  UNL1        0.0990
     14 C         139.4112  143.8476  165.6798 C.ar    1  UNL1        0.0222
     15 C         140.2367  142.6789  165.2300 C.ar    1  UNL1        0.0203
     16 C         141.8390  140.6481  162.3362 C.3     1  UNL1        0.0906
     17 C         140.8621  140.1427  161.3162 C.3     1  UNL1        0.0547
     18 C         141.3588  139.5592  160.0267 C.3     1  UNL1        0.1441
     19 O         142.8323  139.4810  159.7572 O.3     1  UNL1       -0.3536
     20 C         143.8091  139.9863  160.7773 C.3     1  UNL1        0.1441
     21 C         143.3124  140.5698  162.0667 C.3     1  UNL1        0.0547
     22 O         144.4785  142.7756  169.7980 O.2     1  UNL1       -0.2525
     23 C         143.6001  143.5891  170.7017 C.2     1  UNL1        0.3055
     24 N         142.1202  143.3460  170.7270 N.am    1  UNL1       -0.2537
     25 N         144.2017  144.6457  171.5803 N.am    1  UNL1       -0.2903
     26 H         141.5436  143.8799  171.3201 H       1  UNL1        0.1578
     27 H         143.6252  145.1796  172.1734 H       1  UNL1        0.1509
     28 C         145.6817  144.8888  171.5550 C.3     1  UNL1        0.0732
     29 C         146.8824  145.6453  172.0409 C.3     1  UNL1        0.0213
     30 C         147.0444  144.5533  171.0254 C.3     1  UNL1        0.0213
@<TRIPOS>BOND
     1    22    23    2
     2    23    24   am
     3    24     1    1
     4     1     2   ar
     5     2     3   ar
     6     3     7    1
     7     7     8   ar
     8     8     9   ar
     9     9    16    1
    10    16    17    1
    11    17    18    1
    12    18    19    1
    13    19    20    1
    14    20    21    1
    15     9    10   ar
    16    10    11   ar
    17    11    12   ar
    18    12    13   ar
    19    13    14   ar
    20    14    15   ar
    21     3     4   ar
    22     4     5   ar
    23     5     6   ar
    24    23    25   am
    25    25    28    1
    26    28    29    1
    27    29    30    1
    28     6     1   ar
    29    30    28    1
    30    15     7   ar
    31    21    16    1
    32    15    10   ar
    33    24    26    1
    34    25    27    1
@<TRIPOS>MOLECULE
*****
 30 34 0 0 0
SMALL
GASTEIGER

@<TRIPOS>ATOM
      1 C         139.8677  140.5417  170.2860 C.ar    1  UNL1        0.1353
      2 C         140.0289  140.3911  168.8023 C.ar    1  UNL1        0.0346
      3 C         140.2976  141.5965  167.9508 C.ar    1  UNL1        0.0058
      4 C         140.4050  142.9524  168.5831 C.ar    1  UNL1        0.0208
      5 C         140.2437  143.1031  170.0668 C.ar    1  UNL1        0.1003
      6 N         139.9750  141.8977  170.9182 N.ar    1  UNL1       -0.2290
      7 C         140.4589  141.4458  166.4671 C.ar    1  UNL1        0.0188
      8 C         141.0309  140.2537  165.7590 C.ar    1  UNL1        0.0758
      9 N         141.0020  140.5320  164.2853 N.ar    1  UNL1       -0.3265
     10 C         140.4120  141.8961  164.0827 C.ar    1  UNL1        0.0793
     11 C         140.1371  142.6969  162.8445 C.ar    1  UNL1        0.1160
     12 N         139.5266  144.0626  162.9548 N.ar    1  UNL1       -0.2408
     13 C         139.1909  144.6274  164.3033 C.ar    1  UNL1        0.0990
     14 C         139.4658  143.8266  165.5414 C.ar    1  UNL1        0.0222
     15 C         140.0764  142.4609  165.4311 C.ar    1  UNL1        0.0203
     16 C         141.4792  139.6083  163.2041 C.3     1  UNL1        0.0906
     17 C         142.8829  139.0802  163.2343 C.3     1  UNL1        0.0547
     18 C         143.3601  138.1565  162.1530 C.3     1  UNL1        0.1441
     19 O         142.4337  137.7609  161.0416 O.3     1  UNL1       -0.3536
     20 C         141.0301  138.2890  161.0115 C.3     1  UNL1        0.1441
     21 C         140.5529  139.2127  162.0927 C.3     1  UNL1        0.0547
     22 O         137.0461  139.7908  170.9749 O.2     1  UNL1       -0.2525
     23 C         138.1882  138.9609  171.4818 C.2     1  UNL1        0.3055
     24 N         139.5990  139.3364  171.1373 N.am    1  UNL1       -0.2537
     25 N         137.9195  137.7555  172.3333 N.am    1  UNL1       -0.2903
     26 H         140.3486  138.7917  171.4700 H       1  UNL1        0.1578
     27 H         138.6690  137.2108  172.6659 H       1  UNL1        0.1509
     28 C         136.5087  137.3800  172.6777 C.3     1  UNL1        0.0732
     29 C         135.5212  136.3777  173.1976 C.3     1  UNL1        0.0213
     30 C         135.0526  137.7320  172.7545 C.3     1  UNL1        0.0213
@<TRIPOS>BOND
     1    22    23    2
     2    23    24   am
     3    24     1    1
     4     1     2   ar
     5     2     3   ar
     6     3     7    1
     7     7     8   ar
     8     8     9   ar
     9     9    16    1
    10    16    17    1
    11    17    18    1
    12    18    19    1
    13    19    20    1
    14    20    21    1
    15     9    10   ar
    16    10    11   ar
    17    11    12   ar
    18    12    13   ar
    19    13    14   ar
    20    14    15   ar
    21     3     4   ar
    22     4     5   ar
    23     5     6   ar
    24    23    25   am
    25    25    28    1
    26    28    29    1
    27    29    30    1
    28     6     1   ar
    29    30    28    1
    30    15     7   ar
    31    21    16    1
    32    15    10   ar
    33    24    26    1
    34    25    27    1
@<TRIPOS>MOLECULE
*****
 30 34 0 0 0
SMALL
GASTEIGER

@<TRIPOS>ATOM
      1 C         141.5430  142.2760  170.0762 C.ar    1  UNL1        0.1353
      2 C         141.5052  142.3001  168.5769 C.ar    1  UNL1        0.0346
      3 C         140.8852  141.1604  167.8239 C.ar    1  UNL1        0.0058
      4 C         140.3033  139.9968  168.5702 C.ar    1  UNL1        0.0208
      5 C         140.3411  139.9727  170.0696 C.ar    1  UNL1        0.1003
      6 N         140.9610  141.1123  170.8226 N.ar    1  UNL1       -0.2290
      7 C         140.8473  141.1845  166.3245 C.ar    1  UNL1        0.0188
      8 C         139.7136  140.7119  165.4635 C.ar    1  UNL1        0.0758
      9 N         140.1022  140.9208  164.0299 N.ar    1  UNL1       -0.3265
     10 C         141.4760  141.5223  164.0048 C.ar    1  UNL1        0.0793
     11 C         142.3672  141.9428  162.8739 C.ar    1  UNL1        0.1160
     12 N         143.7188  142.5262  163.1611 N.ar    1  UNL1       -0.2408
     13 C         144.1794  142.6891  164.5793 C.ar    1  UNL1        0.0990
     14 C         143.2883  142.2687  165.7103 C.ar    1  UNL1        0.0222
     15 C         141.9366  141.6853  165.4230 C.ar    1  UNL1        0.0203
     16 C         139.2640  140.5867  162.8316 C.3     1  UNL1        0.0906
     17 C         139.1122  141.5836  161.7209 C.3     1  UNL1        0.0547
     18 C         138.2741  141.2495  160.5226 C.3     1  UNL1        0.1441
     19 O         137.5877  139.9186  160.4349 O.3     1  UNL1       -0.3536
     20 C         137.7396  138.9218  161.5454 C.3     1  UNL1        0.1441
     21 C         138.5777  139.2559  162.7437 C.3     1  UNL1        0.0547
     22 O         144.5116  142.6978  169.9815 O.2     1  UNL1       -0.2525
     23 C         143.6473  143.6265  170.7818 C.2     1  UNL1        0.3055
     24 N         142.1629  143.4156  170.8291 N.am    1  UNL1       -0.2537
     25 N         144.2673  144.7662  171.5347 N.am    1  UNL1       -0.2903
     26 H         141.5956  144.0252  171.3543 H       1  UNL1        0.1578
     27 H         143.7000  145.3758  172.0599 H       1  UNL1        0.1509
     28 C         145.7517  144.9771  171.4873 C.3     1  UNL1        0.0732
     29 C         146.9648  145.7663  171.8815 C.3     1  UNL1        0.0213
     30 C         147.1094  144.5532  171.0111 C.3     1  UNL1        0.0213
@<TRIPOS>BOND
     1    22    23    2
     2    23    24   am
     3    24     1    1
     4     1     2   ar
     5     2     3   ar
     6     3     7    1
     7     7     8   ar
     8     8     9   ar
     9     9    16    1
    10    16    17    1
    11    17    18    1
    12    18    19    1
    13    19    20    1
    14    20    21    1
    15     9    10   ar
    16    10    11   ar
    17    11    12   ar
    18    12    13   ar
    19    13    14   ar
    20    14    15   ar
    21     3     4   ar
    22     4     5   ar
    23     5     6   ar
    24    23    25   am
    25    25    28    1
    26    28    29    1
    27    29    30    1
    28     6     1   ar
    29    30    28    1
    30    15     7   ar
    31    21    16    1
    32    15    10   ar
    33    24    26    1
    34    25    27    1
@<TRIPOS>MOLECULE
*****
 30 34 0 0 0
SMALL
GASTEIGER

@<TRIPOS>ATOM
      1 C         140.3552  143.0116  170.2966 C.ar    1  UNL1        0.1353
      2 C         140.1771  142.7934  168.8232 C.ar    1  UNL1        0.0346
      3 C         141.3666  142.4922  167.9604 C.ar    1  UNL1        0.0058
      4 C         142.7342  142.4093  168.5709 C.ar    1  UNL1        0.0208
      5 C         142.9123  142.6274  170.0443 C.ar    1  UNL1        0.1003
      6 N         141.7229  142.9286  170.9071 N.ar    1  UNL1       -0.2290
      7 C         141.1885  142.2741  166.4871 C.ar    1  UNL1        0.0188
      8 C         141.9331  142.9825  165.3945 C.ar    1  UNL1        0.0758
      9 N         141.4392  142.4554  164.0799 N.ar    1  UNL1       -0.3265
     10 C         140.3894  141.4212  164.3599 C.ar    1  UNL1        0.0793
     11 C         139.5546  140.5671  163.4525 C.ar    1  UNL1        0.1160
     12 N         138.5648  139.6009  164.0328 N.ar    1  UNL1       -0.2408
     13 C         138.4099  139.4888  165.5206 C.ar    1  UNL1        0.0990
     14 C         139.2447  140.3429  166.4280 C.ar    1  UNL1        0.0222
     15 C         140.2345  141.3091  165.8477 C.ar    1  UNL1        0.0203
     16 C         141.9121  142.8867  162.7233 C.3     1  UNL1        0.0906
     17 C         143.3451  142.6836  162.3289 C.3     1  UNL1        0.0547
     18 C         143.8179  143.1150  160.9723 C.3     1  UNL1        0.1441
     19 O         142.8579  143.7493  160.0101 O.3     1  UNL1       -0.3536
     20 C         141.4250  143.9524  160.4044 C.3     1  UNL1        0.1441
     21 C         140.9521  143.5211  161.7610 C.3     1  UNL1        0.0547
     22 O         139.5932  145.8579  170.8599 O.2     1  UNL1       -0.2525
     23 C         138.7847  144.7360  171.4410 C.2     1  UNL1        0.3055
     24 N         139.1657  143.3128  171.1593 N.am    1  UNL1       -0.2537
     25 N         137.5952  145.0372  172.3037 N.am    1  UNL1       -0.2903
     26 H         138.6351  142.5764  171.5406 H       1  UNL1        0.1578
     27 H         137.0645  144.3009  172.6851 H       1  UNL1        0.1509
     28 C         137.2141  146.4604  172.5854 C.3     1  UNL1        0.0732
     29 C         137.5830  147.9121  172.6675 C.3     1  UNL1        0.0213
     30 C         136.1854  147.4738  172.9913 C.3     1  UNL1        0.0213
@<TRIPOS>BOND
     1    22    23    2
     2    23    24   am
     3    24     1    1
     4     1     2   ar
     5     2     3   ar
     6     3     7    1
     7     7     8   ar
     8     8     9   ar
     9     9    16    1
    10    16    17    1
    11    17    18    1
    12    18    19    1
    13    19    20    1
    14    20    21    1
    15     9    10   ar
    16    10    11   ar
    17    11    12   ar
    18    12    13   ar
    19    13    14   ar
    20    14    15   ar
    21     3     4   ar
    22     4     5   ar
    23     5     6   ar
    24    23    25   am
    25    25    28    1
    26    28    29    1
    27    29    30    1
    28     6     1   ar
    29    30    28    1
    30    15     7   ar
    31    21    16    1
    32    15    10   ar
    33    24    26    1
    34    25    27    1
