@<TRIPOS>MOLECULE
*****
 33 35 0 0 0
SMALL
GASTEIGER

@<TRIPOS>ATOM
      1 C         139.2631  139.3263  164.8859 C.3     1  UNL1        0.1688
      2 C         139.7006  138.4030  163.7875 C.3     1  UNL1        0.0609
      3 C         139.1296  138.5542  162.4087 C.3     1  UNL1        0.0758
      4 N         138.1211  139.6286  162.1282 N.3     1  UNL1       -0.2724
      5 C         137.6836  140.5518  163.2265 C.3     1  UNL1        0.0758
      6 C         138.2546  140.4007  164.6054 C.3     1  UNL1        0.0609
      7 O         139.8341  139.1751  166.2646 O.3     1  UNL1       -0.4776
      8 C         142.9735  141.6023  166.2145 C.ar    1  UNL1       -0.0191
      9 C         141.8891  140.6777  165.7462 C.ar    1  UNL1        0.0342
     10 C         140.9184  140.0997  166.7329 C.ar    1  UNL1        0.1555
     11 C         141.0321  140.4462  168.1879 C.ar    1  UNL1        0.1151
     12 N         140.0614  139.8682  169.1746 N.ar    1  UNL1       -0.2408
     13 C         140.1750  140.2148  170.6296 C.ar    1  UNL1        0.0989
     14 C         141.2594  141.1394  171.0978 C.ar    1  UNL1        0.0207
     15 C         142.2301  141.7174  170.1112 C.ar    1  UNL1        0.0032
     16 C         142.1164  141.3709  168.6562 C.ar    1  UNL1        0.0204
     17 C         143.0871  141.9489  167.6695 C.ar    1  UNL1       -0.0026
     18 C         143.9442  142.1804  165.2277 C.3     1  UNL1        0.0265
     19 C         144.3773  143.6111  165.3519 C.3     1  UNL1        0.0047
     20 C         143.9945  144.3994  162.9061 C.3     1  UNL1        0.0000
     21 C         143.8682  144.6357  164.3819 C.3     1  UNL1        0.0003
     22 C         137.5501  139.7798  160.7494 C.3     1  UNL1        0.0740
     23 C         138.3566  140.4426  159.6722 C.3     1  UNL1        0.0443
     24 C         138.3057  141.9325  159.5064 C.3     1  UNL1        0.1703
     25 S         139.2552  142.8052  160.2724 S.O2    1  UNL1        0.0407
     26 O         140.3915  142.3105  159.4275 O.2     1  UNL1       -0.1575
     27 O         138.1188  143.3000  161.1173 O.2     1  UNL1       -0.1575
     28 N         140.2048  143.6780  161.0384 N.3     1  UNL1       -0.1860
     29 H         139.9573  144.6435  160.8217 H       1  UNL1        0.1483
     30 C         140.2786  143.5748  162.5330 C.3     1  UNL1        0.0619
     31 C         140.8085  142.1769  162.4103 C.3     1  UNL1        0.0175
     32 C         139.7487  144.9727  162.6556 C.3     1  UNL1        0.0175
     33 C         140.3525  143.4717  164.0276 C.3     1  UNL1        0.0175
@<TRIPOS>BOND
     1    20    21    1
     2    21    19    1
     3    19    18    1
     4    18     8    1
     5     8     9   ar
     6     9    10   ar
     7    10     7    1
     8     7     1    1
     9     1     2    1
    10     2     3    1
    11     3     4    1
    12     4    22    1
    13    22    23    1
    14    23    24    1
    15    24    25    1
    16    25    26    2
    17    25    27    2
    18    25    28    1
    19    28    30    1
    20    30    31    1
    21    30    32    1
    22    30    33    1
    23     4     5    1
    24     5     6    1
    25    10    11   ar
    26    11    12   ar
    27    12    13   ar
    28    13    14   ar
    29    14    15   ar
    30    15    16   ar
    31    16    17   ar
    32    17     8   ar
    33     6     1    1
    34    16    11   ar
    35    28    29    1
@<TRIPOS>MOLECULE
*****
 33 35 0 0 0
SMALL
GASTEIGER

@<TRIPOS>ATOM
      1 C         138.5596  140.0120  163.3919 C.3     1  UNL1        0.1688
      2 C         139.3067  139.6544  162.1413 C.3     1  UNL1        0.0609
      3 C         139.3244  140.6044  160.9807 C.3     1  UNL1        0.0758
      4 N         138.5951  141.9121  161.0706 N.3     1  UNL1       -0.2724
      5 C         137.8480  142.2697  162.3212 C.3     1  UNL1        0.0758
      6 C         137.8303  141.3196  163.4819 C.3     1  UNL1        0.0609
      7 O         138.5419  139.0619  164.5525 O.3     1  UNL1       -0.4776
      8 C         139.6752  139.9964  168.2393 C.ar    1  UNL1       -0.0191
      9 C         138.8019  139.7403  167.0470 C.ar    1  UNL1        0.0342
     10 C         139.4152  139.3181  165.7449 C.ar    1  UNL1        0.1555
     11 C         140.9020  139.1520  165.6351 C.ar    1  UNL1        0.1151
     12 N         141.5154  138.7298  164.3330 N.ar    1  UNL1       -0.2408
     13 C         143.0021  138.5638  164.2232 C.ar    1  UNL1        0.0989
     14 C         143.8754  138.8200  165.4155 C.ar    1  UNL1        0.0207
     15 C         143.2621  139.2422  166.7176 C.ar    1  UNL1        0.0032
     16 C         141.7753  139.4082  166.8274 C.ar    1  UNL1        0.0204
     17 C         141.1619  139.8304  168.1295 C.ar    1  UNL1       -0.0026
     18 C         139.0618  140.4186  169.5415 C.3     1  UNL1        0.0265
     19 C         139.8486  141.2581  170.5039 C.3     1  UNL1        0.0047
     20 C         140.5313  143.4689  169.3223 C.3     1  UNL1        0.0000
     21 C         139.7917  142.7543  170.4143 C.3     1  UNL1        0.0003
     22 C         138.6128  142.8621  159.9100 C.3     1  UNL1        0.0740
     23 C         139.8700  143.6057  159.5686 C.3     1  UNL1        0.0443
     24 C         139.9939  145.0627  159.9030 C.3     1  UNL1        0.1703
     25 S         140.4057  145.4831  161.2827 S.O2    1  UNL1        0.0407
     26 O         139.3018  146.4985  161.3028 O.2     1  UNL1       -0.1575
     27 O         141.5095  144.4677  161.2626 O.2     1  UNL1       -0.1575
     28 N         140.8174  145.9036  162.6625 N.3     1  UNL1       -0.1860
     29 H         140.1947  146.6633  162.9369 H       1  UNL1        0.1483
     30 C         140.8065  144.9080  163.7844 C.3     1  UNL1        0.0619
     31 C         139.3079  144.8675  163.7339 C.3     1  UNL1        0.0175
     32 C         142.3051  144.9486  163.8350 C.3     1  UNL1        0.0175
     33 C         140.7957  143.9125  164.9064 C.3     1  UNL1        0.0175
@<TRIPOS>BOND
     1    20    21    1
     2    21    19    1
     3    19    18    1
     4    18     8    1
     5     8     9   ar
     6     9    10   ar
     7    10     7    1
     8     7     1    1
     9     1     2    1
    10     2     3    1
    11     3     4    1
    12     4    22    1
    13    22    23    1
    14    23    24    1
    15    24    25    1
    16    25    26    2
    17    25    27    2
    18    25    28    1
    19    28    30    1
    20    30    31    1
    21    30    32    1
    22    30    33    1
    23     4     5    1
    24     5     6    1
    25    10    11   ar
    26    11    12   ar
    27    12    13   ar
    28    13    14   ar
    29    14    15   ar
    30    15    16   ar
    31    16    17   ar
    32    17     8   ar
    33     6     1    1
    34    16    11   ar
    35    28    29    1
@<TRIPOS>MOLECULE
*****
 33 35 0 0 0
SMALL
GASTEIGER

@<TRIPOS>ATOM
      1 C         142.8297  140.5754  163.3396 C.3     1  UNL1        0.1688
      2 C         142.1723  140.1532  162.0591 C.3     1  UNL1        0.0609
      3 C         142.0195  141.1349  160.9353 C.3     1  UNL1        0.0758
      4 N         142.5240  142.5387  161.0920 N.3     1  UNL1       -0.2724
      5 C         143.1814  142.9610  162.3724 C.3     1  UNL1        0.0758
      6 C         143.3343  141.9793  163.4963 C.3     1  UNL1        0.0609
      7 O         142.9826  139.5937  164.4634 O.3     1  UNL1       -0.4776
      8 C         142.3352  140.6828  168.2243 C.ar    1  UNL1       -0.0191
      9 C         143.0329  140.4424  166.9184 C.ar    1  UNL1        0.0342
     10 C         142.2849  139.8341  165.7693 C.ar    1  UNL1        0.1555
     11 C         140.8392  139.4660  165.9262 C.ar    1  UNL1        0.1151
     12 N         140.0912  138.8576  164.7772 N.ar    1  UNL1       -0.2408
     13 C         138.6456  138.4896  164.9341 C.ar    1  UNL1        0.0989
     14 C         137.9480  138.7299  166.2400 C.ar    1  UNL1        0.0207
     15 C         138.6959  139.3383  167.3891 C.ar    1  UNL1        0.0032
     16 C         140.1415  139.7064  167.2322 C.ar    1  UNL1        0.0204
     17 C         140.8896  140.3148  168.3812 C.ar    1  UNL1       -0.0026
     18 C         143.0833  141.2912  169.3734 C.3     1  UNL1        0.0265
     19 C         142.3397  142.0367  170.4418 C.3     1  UNL1        0.0047
     20 C         140.4721  143.6667  169.6641 C.3     1  UNL1        0.0000
     21 C         141.8593  143.4343  170.1852 C.3     1  UNL1        0.0003
     22 C         142.3712  143.5204  159.9682 C.3     1  UNL1        0.0740
     23 C         141.1161  144.3330  159.8477 C.3     1  UNL1        0.0443
     24 C         140.7351  145.2908  160.9374 C.3     1  UNL1        0.1703
     25 S         139.7492  144.8764  161.9891 S.O2    1  UNL1        0.0407
     26 O         138.9042  144.2195  160.9382 O.2     1  UNL1       -0.1575
     27 O         140.5942  145.5334  163.0400 O.2     1  UNL1       -0.1575
     28 N         138.7632  144.4621  163.0409 N.3     1  UNL1       -0.1860
     29 H         138.0762  143.8643  162.5813 H       1  UNL1        0.1483
     30 C         139.2324  143.7247  164.2599 C.3     1  UNL1        0.0619
     31 C         139.6813  142.5831  163.3965 C.3     1  UNL1        0.0175
     32 C         138.7835  144.8662  165.1232 C.3     1  UNL1        0.0175
     33 C         139.7016  142.9872  165.4789 C.3     1  UNL1        0.0175
@<TRIPOS>BOND
     1    20    21    1
     2    21    19    1
     3    19    18    1
     4    18     8    1
     5     8     9   ar
     6     9    10   ar
     7    10     7    1
     8     7     1    1
     9     1     2    1
    10     2     3    1
    11     3     4    1
    12     4    22    1
    13    22    23    1
    14    23    24    1
    15    24    25    1
    16    25    26    2
    17    25    27    2
    18    25    28    1
    19    28    30    1
    20    30    31    1
    21    30    32    1
    22    30    33    1
    23     4     5    1
    24     5     6    1
    25    10    11   ar
    26    11    12   ar
    27    12    13   ar
    28    13    14   ar
    29    14    15   ar
    30    15    16   ar
    31    16    17   ar
    32    17     8   ar
    33     6     1    1
    34    16    11   ar
    35    28    29    1
@<TRIPOS>MOLECULE
*****
 33 35 0 0 0
SMALL
GASTEIGER

@<TRIPOS>ATOM
      1 C         143.0452  141.6312  164.8588 C.3     1  UNL1        0.1688
      2 C         143.1508  143.1242  164.7593 C.3     1  UNL1        0.0609
      3 C         143.1498  143.7881  163.4143 C.3     1  UNL1        0.0758
      4 N         143.0432  142.9591  162.1687 N.3     1  UNL1       -0.2724
      5 C         142.9376  141.4662  162.2682 C.3     1  UNL1        0.0758
      6 C         142.9386  140.8022  163.6133 C.3     1  UNL1        0.0609
      7 O         143.0462  140.9673  166.2039 O.3     1  UNL1       -0.4776
      8 C         139.4245  139.4627  166.8114 C.ar    1  UNL1       -0.0191
      9 C         140.7229  139.8059  166.1435 C.ar    1  UNL1        0.0342
     10 C         141.7477  140.6240  166.8718 C.ar    1  UNL1        0.1555
     11 C         141.4741  141.0989  168.2682 C.ar    1  UNL1        0.1151
     12 N         142.4989  141.9169  168.9965 N.ar    1  UNL1       -0.2408
     13 C         142.2252  142.3918  170.3927 C.ar    1  UNL1        0.0989
     14 C         140.9267  142.0485  171.0607 C.ar    1  UNL1        0.0207
     15 C         139.9020  141.2304  170.3324 C.ar    1  UNL1        0.0032
     16 C         140.1756  140.7556  168.9361 C.ar    1  UNL1        0.0204
     17 C         139.1508  139.9375  168.2077 C.ar    1  UNL1       -0.0026
     18 C         138.3997  138.6445  166.0831 C.3     1  UNL1        0.0265
     19 C         138.8359  137.5745  165.1266 C.3     1  UNL1        0.0047
     20 C         138.5313  139.2065  163.1282 C.3     1  UNL1        0.0000
     21 C         138.7793  137.8216  163.6482 C.3     1  UNL1        0.0003
     22 C         143.0422  143.6230  160.8237 C.3     1  UNL1        0.0740
     23 C         141.7429  143.9801  160.1645 C.3     1  UNL1        0.0443
     24 C         140.9985  145.2103  160.5916 C.3     1  UNL1        0.1703
     25 S         139.8308  145.0937  161.5259 S.O2    1  UNL1        0.0407
     26 O         139.8988  146.5679  161.7947 O.2     1  UNL1       -0.1575
     27 O         139.7629  143.6196  161.2571 O.2     1  UNL1       -0.1575
     28 N         138.6631  144.9772  162.4603 N.3     1  UNL1       -0.1860
     29 H         137.8533  144.7325  161.8904 H       1  UNL1        0.1483
     30 C         138.7058  143.9976  163.5954 C.3     1  UNL1        0.0619
     31 C         137.6183  143.1956  162.9442 C.3     1  UNL1        0.0175
     32 C         139.7932  144.7997  164.2467 C.3     1  UNL1        0.0175
     33 C         138.7484  143.0181  164.7306 C.3     1  UNL1        0.0175
@<TRIPOS>BOND
     1    20    21    1
     2    21    19    1
     3    19    18    1
     4    18     8    1
     5     8     9   ar
     6     9    10   ar
     7    10     7    1
     8     7     1    1
     9     1     2    1
    10     2     3    1
    11     3     4    1
    12     4    22    1
    13    22    23    1
    14    23    24    1
    15    24    25    1
    16    25    26    2
    17    25    27    2
    18    25    28    1
    19    28    30    1
    20    30    31    1
    21    30    32    1
    22    30    33    1
    23     4     5    1
    24     5     6    1
    25    10    11   ar
    26    11    12   ar
    27    12    13   ar
    28    13    14   ar
    29    14    15   ar
    30    15    16   ar
    31    16    17   ar
    32    17     8   ar
    33     6     1    1
    34    16    11   ar
    35    28    29    1
@<TRIPOS>MOLECULE
*****
 33 35 0 0 0
SMALL
GASTEIGER

@<TRIPOS>ATOM
      1 C         140.2706  138.7907  165.2395 C.3     1  UNL1        0.1688
      2 C         140.7359  137.9521  164.0861 C.3     1  UNL1        0.0609
      3 C         139.9041  137.8613  162.8412 C.3     1  UNL1        0.0758
      4 N         138.6071  138.6091  162.7496 N.3     1  UNL1       -0.2724
      5 C         138.1418  139.4478  163.9029 C.3     1  UNL1        0.0758
      6 C         138.9736  139.5386  165.1479 C.3     1  UNL1        0.0609
      7 O         141.1023  138.8815  166.4845 O.3     1  UNL1       -0.4776
      8 C         143.4246  142.0571  165.9624 C.ar    1  UNL1       -0.0191
      9 C         142.6411  140.8111  165.6730 C.ar    1  UNL1        0.0342
     10 C         141.8858  140.1275  166.7739 C.ar    1  UNL1        0.1555
     11 C         141.9138  140.6898  168.1642 C.ar    1  UNL1        0.1151
     12 N         141.1585  140.0061  169.2651 N.ar    1  UNL1       -0.2408
     13 C         141.1866  140.5685  170.6554 C.ar    1  UNL1        0.0989
     14 C         141.9700  141.8144  170.9448 C.ar    1  UNL1        0.0207
     15 C         142.7254  142.4981  169.8439 C.ar    1  UNL1        0.0032
     16 C         142.6973  141.9358  168.4536 C.ar    1  UNL1        0.0204
     17 C         143.4527  142.6194  167.3527 C.ar    1  UNL1       -0.0026
     18 C         144.1799  142.7408  164.8614 C.3     1  UNL1        0.0265
     19 C         144.2046  144.2387  164.7866 C.3     1  UNL1        0.0047
     20 C         142.1510  145.4557  163.7612 C.3     1  UNL1        0.0000
     21 C         143.5547  144.9428  163.6326 C.3     1  UNL1        0.0003
     22 C         137.7753  138.5184  161.5046 C.3     1  UNL1        0.0740
     23 C         137.3144  139.7697  160.8177 C.3     1  UNL1        0.0443
     24 C         138.3187  140.7152  160.2284 C.3     1  UNL1        0.1703
     25 S         138.6958  141.9649  160.9674 S.O2    1  UNL1        0.0407
     26 O         139.9596  142.0580  160.1649 O.2     1  UNL1       -0.1575
     27 O         137.4319  141.8718  161.7698 O.2     1  UNL1       -0.1575
     28 N         139.0729  143.2146  161.7063 N.3     1  UNL1       -0.1860
     29 H         138.3394  143.8988  161.5213 H       1  UNL1        0.1483
     30 C         139.2653  143.1774  163.1935 C.3     1  UNL1        0.0619
     31 C         138.1428  144.1579  163.3632 C.3     1  UNL1        0.0175
     32 C         140.3877  142.1970  163.0238 C.3     1  UNL1        0.0175
     33 C         139.4576  143.1402  164.6807 C.3     1  UNL1        0.0175
@<TRIPOS>BOND
     1    20    21    1
     2    21    19    1
     3    19    18    1
     4    18     8    1
     5     8     9   ar
     6     9    10   ar
     7    10     7    1
     8     7     1    1
     9     1     2    1
    10     2     3    1
    11     3     4    1
    12     4    22    1
    13    22    23    1
    14    23    24    1
    15    24    25    1
    16    25    26    2
    17    25    27    2
    18    25    28    1
    19    28    30    1
    20    30    31    1
    21    30    32    1
    22    30    33    1
    23     4     5    1
    24     5     6    1
    25    10    11   ar
    26    11    12   ar
    27    12    13   ar
    28    13    14   ar
    29    14    15   ar
    30    15    16   ar
    31    16    17   ar
    32    17     8   ar
    33     6     1    1
    34    16    11   ar
    35    28    29    1
@<TRIPOS>MOLECULE
*****
 33 35 0 0 0
SMALL
GASTEIGER

@<TRIPOS>ATOM
      1 C         143.5792  139.4150  164.7164 C.3     1  UNL1        0.1688
      2 C         142.9568  138.5926  163.6273 C.3     1  UNL1        0.0609
      3 C         143.2453  138.9099  162.1899 C.3     1  UNL1        0.0758
      4 N         144.1564  140.0495  161.8416 N.3     1  UNL1       -0.2724
      5 C         144.7788  140.8719  162.9307 C.3     1  UNL1        0.0758
      6 C         144.4903  140.5547  164.3682 C.3     1  UNL1        0.0609
      7 O         143.2907  139.0978  166.1538 O.3     1  UNL1       -0.4776
      8 C         139.3836  139.7181  166.4700 C.ar    1  UNL1       -0.0191
      9 C         140.7227  139.3842  165.8824 C.ar    1  UNL1        0.0342
     10 C         141.9515  139.4317  166.7413 C.ar    1  UNL1        0.1555
     11 C         141.8412  139.8132  168.1879 C.ar    1  UNL1        0.1151
     12 N         143.0700  139.8608  169.0468 N.ar    1  UNL1       -0.2408
     13 C         142.9597  140.2423  170.4932 C.ar    1  UNL1        0.0989
     14 C         141.6206  140.5762  171.0808 C.ar    1  UNL1        0.0207
     15 C         140.3918  140.5287  170.2219 C.ar    1  UNL1        0.0032
     16 C         140.5021  140.1472  168.7754 C.ar    1  UNL1        0.0204
     17 C         139.2733  140.0996  167.9164 C.ar    1  UNL1       -0.0026
     18 C         138.1548  139.6705  165.6110 C.3     1  UNL1        0.0265
     19 C         138.0640  140.5280  164.3836 C.3     1  UNL1        0.0047
     20 C         137.6595  142.8544  163.3000 C.3     1  UNL1        0.0000
     21 C         137.9124  142.0144  164.5167 C.3     1  UNL1        0.0003
     22 C         144.4449  140.3667  160.4043 C.3     1  UNL1        0.0740
     23 C         143.5764  141.3386  159.6617 C.3     1  UNL1        0.0443
     24 C         143.5806  142.7898  160.0411 C.3     1  UNL1        0.1703
     25 S         142.5231  143.3281  160.9586 S.O2    1  UNL1        0.0407
     26 O         141.4684  142.6283  160.1537 O.2     1  UNL1       -0.1575
     27 O         143.5778  144.0278  161.7636 O.2     1  UNL1       -0.1575
     28 N         141.4656  143.8664  161.8763 N.3     1  UNL1       -0.1860
     29 H         140.5666  143.5747  161.4926 H       1  UNL1        0.1483
     30 C         141.4633  143.4808  163.3259 C.3     1  UNL1        0.0619
     31 C         141.3276  142.0372  162.9417 C.3     1  UNL1        0.0175
     32 C         141.5990  144.9244  163.7100 C.3     1  UNL1        0.0175
     33 C         141.4611  143.0953  164.7755 C.3     1  UNL1        0.0175
@<TRIPOS>BOND
     1    20    21    1
     2    21    19    1
     3    19    18    1
     4    18     8    1
     5     8     9   ar
     6     9    10   ar
     7    10     7    1
     8     7     1    1
     9     1     2    1
    10     2     3    1
    11     3     4    1
    12     4    22    1
    13    22    23    1
    14    23    24    1
    15    24    25    1
    16    25    26    2
    17    25    27    2
    18    25    28    1
    19    28    30    1
    20    30    31    1
    21    30    32    1
    22    30    33    1
    23     4     5    1
    24     5     6    1
    25    10    11   ar
    26    11    12   ar
    27    12    13   ar
    28    13    14   ar
    29    14    15   ar
    30    15    16   ar
    31    16    17   ar
    32    17     8   ar
    33     6     1    1
    34    16    11   ar
    35    28    29    1
@<TRIPOS>MOLECULE
*****
 33 35 0 0 0
SMALL
GASTEIGER

@<TRIPOS>ATOM
      1 C         142.8087  143.6469  164.0995 C.3     1  UNL1        0.1688
      2 C         141.5067  144.3899  164.0444 C.3     1  UNL1        0.0609
      3 C         140.9673  144.8612  162.7265 C.3     1  UNL1        0.0758
      4 N         141.7299  144.5897  161.4636 N.3     1  UNL1       -0.2724
      5 C         143.0318  143.8468  161.5187 C.3     1  UNL1        0.0758
      6 C         143.5712  143.3754  162.8366 C.3     1  UNL1        0.0609
      7 O         143.3481  143.1756  165.4173 O.3     1  UNL1       -0.4776
      8 C         142.4256  139.3157  165.4180 C.ar    1  UNL1       -0.0191
      9 C         142.7463  140.6962  164.9269 C.ar    1  UNL1        0.0342
     10 C         143.0274  141.7950  165.9085 C.ar    1  UNL1        0.1555
     11 C         142.9878  141.5133  167.3813 C.ar    1  UNL1        0.1151
     12 N         143.2688  142.6121  168.3629 N.ar    1  UNL1       -0.2408
     13 C         143.2292  142.3303  169.8356 C.ar    1  UNL1        0.0989
     14 C         142.9086  140.9498  170.3268 C.ar    1  UNL1        0.0207
     15 C         142.6275  139.8510  169.3452 C.ar    1  UNL1        0.0032
     16 C         142.6671  140.1327  167.8724 C.ar    1  UNL1        0.0204
     17 C         142.3860  139.0339  166.8907 C.ar    1  UNL1       -0.0026
     18 C         142.1446  138.2168  164.4363 C.3     1  UNL1        0.0265
     19 C         141.0077  137.2685  164.6774 C.3     1  UNL1        0.0047
     20 C         139.2576  137.6970  162.8057 C.3     1  UNL1        0.0000
     21 C         139.6165  137.6441  164.2611 C.3     1  UNL1        0.0003
     22 C         141.1905  145.0610  160.1458 C.3     1  UNL1        0.0740
     23 C         140.7532  144.0635  159.1143 C.3     1  UNL1        0.0443
     24 C         139.3442  143.5489  159.1187 C.3     1  UNL1        0.1703
     25 S         138.9645  142.4103  160.0184 S.O2    1  UNL1        0.0407
     26 O         139.6818  141.4546  159.1117 O.2     1  UNL1       -0.1575
     27 O         138.2472  143.3661  160.9250 O.2     1  UNL1       -0.1575
     28 N         138.5847  141.2717  160.9181 N.3     1  UNL1       -0.1860
     29 H         139.0138  140.4325  160.5281 H       1  UNL1        0.1483
     30 C         138.9517  141.3101  162.3720 C.3     1  UNL1        0.0619
     31 C         137.4973  141.3308  162.7385 C.3     1  UNL1        0.0175
     32 C         140.4061  141.2894  162.0054 C.3     1  UNL1        0.0175
     33 C         139.3187  141.3485  163.8259 C.3     1  UNL1        0.0175
@<TRIPOS>BOND
     1    20    21    1
     2    21    19    1
     3    19    18    1
     4    18     8    1
     5     8     9   ar
     6     9    10   ar
     7    10     7    1
     8     7     1    1
     9     1     2    1
    10     2     3    1
    11     3     4    1
    12     4    22    1
    13    22    23    1
    14    23    24    1
    15    24    25    1
    16    25    26    2
    17    25    27    2
    18    25    28    1
    19    28    30    1
    20    30    31    1
    21    30    32    1
    22    30    33    1
    23     4     5    1
    24     5     6    1
    25    10    11   ar
    26    11    12   ar
    27    12    13   ar
    28    13    14   ar
    29    14    15   ar
    30    15    16   ar
    31    16    17   ar
    32    17     8   ar
    33     6     1    1
    34    16    11   ar
    35    28    29    1
@<TRIPOS>MOLECULE
*****
 33 35 0 0 0
SMALL
GASTEIGER

@<TRIPOS>ATOM
      1 C         139.3694  143.1438  164.9558 C.3     1  UNL1        0.1688
      2 C         140.6699  143.8645  164.7570 C.3     1  UNL1        0.0609
      3 C         140.8200  144.8439  163.6309 C.3     1  UNL1        0.0758
      4 N         139.6697  145.1029  162.7037 N.3     1  UNL1       -0.2724
      5 C         138.3693  144.3823  162.9025 C.3     1  UNL1        0.0758
      6 C         138.2191  143.4027  164.0286 C.3     1  UNL1        0.0609
      7 O         139.2192  142.1643  166.0818 O.3     1  UNL1       -0.4776
      8 C         141.9487  139.2834  166.0916 C.ar    1  UNL1       -0.0191
      9 C         140.7833  140.1304  165.6739 C.ar    1  UNL1        0.0342
     10 C         140.3846  141.3174  166.4996 C.ar    1  UNL1        0.1555
     11 C         141.1514  141.6576  167.7432 C.ar    1  UNL1        0.1151
     12 N         140.7527  142.8446  168.5690 N.ar    1  UNL1       -0.2408
     13 C         141.5194  143.1848  169.8125 C.ar    1  UNL1        0.0989
     14 C         142.6848  142.3378  170.2303 C.ar    1  UNL1        0.0207
     15 C         143.0835  141.1508  169.4045 C.ar    1  UNL1        0.0032
     16 C         142.3168  140.8107  168.1610 C.ar    1  UNL1        0.0204
     17 C         142.7155  139.6236  167.3352 C.ar    1  UNL1       -0.0026
     18 C         142.3474  138.0963  165.2658 C.3     1  UNL1        0.0265
     19 C         141.2952  137.2458  164.6181 C.3     1  UNL1        0.0047
     20 C         139.7986  137.8887  162.5940 C.3     1  UNL1        0.0000
     21 C         141.0771  137.3216  163.1360 C.3     1  UNL1        0.0003
     22 C         139.8198  146.0824  161.5777 C.3     1  UNL1        0.0740
     23 C         140.0893  145.5903  160.1865 C.3     1  UNL1        0.0443
     24 C         141.4515  145.0786  159.8226 C.3     1  UNL1        0.1703
     25 S         141.7291  143.6046  159.8431 S.O2    1  UNL1        0.0407
     26 O         142.9817  143.8515  160.6304 O.2     1  UNL1       -0.1575
     27 O         140.4764  143.3578  159.0557 O.2     1  UNL1       -0.1575
     28 N         142.0067  142.1306  159.8635 N.3     1  UNL1       -0.1860
     29 H         142.8304  141.9780  159.2816 H       1  UNL1        0.1483
     30 C         142.2621  141.4336  161.1670 C.3     1  UNL1        0.0619
     31 C         143.6440  141.0769  160.7053 C.3     1  UNL1        0.0175
     32 C         140.8803  141.7904  161.6286 C.3     1  UNL1        0.0175
     33 C         142.5176  140.7366  162.4704 C.3     1  UNL1        0.0175
@<TRIPOS>BOND
     1    20    21    1
     2    21    19    1
     3    19    18    1
     4    18     8    1
     5     8     9   ar
     6     9    10   ar
     7    10     7    1
     8     7     1    1
     9     1     2    1
    10     2     3    1
    11     3     4    1
    12     4    22    1
    13    22    23    1
    14    23    24    1
    15    24    25    1
    16    25    26    2
    17    25    27    2
    18    25    28    1
    19    28    30    1
    20    30    31    1
    21    30    32    1
    22    30    33    1
    23     4     5    1
    24     5     6    1
    25    10    11   ar
    26    11    12   ar
    27    12    13   ar
    28    13    14   ar
    29    14    15   ar
    30    15    16   ar
    31    16    17   ar
    32    17     8   ar
    33     6     1    1
    34    16    11   ar
    35    28    29    1
@<TRIPOS>MOLECULE
*****
 33 35 0 0 0
SMALL
GASTEIGER

@<TRIPOS>ATOM
      1 C         138.6245  141.4599  164.9279 C.3     1  UNL1        0.1688
      2 C         137.8298  141.4280  163.6561 C.3     1  UNL1        0.0609
      3 C         137.7355  142.6559  162.7997 C.3     1  UNL1        0.0758
      4 N         138.4360  143.9156  163.2150 N.3     1  UNL1       -0.2724
      5 C         139.2308  143.9474  164.4867 C.3     1  UNL1        0.0758
      6 C         139.3250  142.7196  165.3432 C.3     1  UNL1        0.0609
      7 O         138.7188  140.2321  165.7844 O.3     1  UNL1       -0.4776
      8 C         141.3228  139.6950  168.7306 C.ar    1  UNL1       -0.0191
      9 C         140.0474  140.0077  168.0057 C.ar    1  UNL1        0.0342
     10 C         139.9942  139.9193  166.5093 C.ar    1  UNL1        0.1555
     11 C         141.2164  139.5182  165.7377 C.ar    1  UNL1        0.1151
     12 N         141.1632  139.4298  164.2413 N.ar    1  UNL1       -0.2408
     13 C         142.3854  139.0286  163.4697 C.ar    1  UNL1        0.0989
     14 C         143.6608  138.7159  164.1947 C.ar    1  UNL1        0.0207
     15 C         143.7140  138.8043  165.6911 C.ar    1  UNL1        0.0032
     16 C         142.4918  139.2054  166.4626 C.ar    1  UNL1        0.0204
     17 C         142.5450  139.2939  167.9591 C.ar    1  UNL1       -0.0026
     18 C         141.3760  139.7834  170.2271 C.3     1  UNL1        0.0265
     19 C         141.9231  141.0145  170.8867 C.3     1  UNL1        0.0047
     20 C         143.0151  143.3598  170.6473 C.3     1  UNL1        0.0000
     21 C         142.7297  141.9967  170.0900 C.3     1  UNL1        0.0003
     22 C         138.3418  145.1434  162.3585 C.3     1  UNL1        0.0740
     23 C         139.5754  145.9392  162.0500 C.3     1  UNL1        0.0443
     24 C         140.6528  145.3491  161.1893 C.3     1  UNL1        0.1703
     25 S         141.9339  144.8764  161.8099 S.O2    1  UNL1        0.0407
     26 O         141.5610  145.5536  163.0953 O.2     1  UNL1       -0.1575
     27 O         142.3068  144.1992  160.5245 O.2     1  UNL1       -0.1575
     28 N         143.2151  144.4038  162.4307 N.3     1  UNL1       -0.1860
     29 H         143.7571  145.2374  162.6582 H       1  UNL1        0.1483
     30 C         143.1812  143.5580  163.6690 C.3     1  UNL1        0.0619
     31 C         144.0211  144.5734  164.3856 C.3     1  UNL1        0.0175
     32 C         142.3412  142.5426  162.9525 C.3     1  UNL1        0.0175
     33 C         143.1472  142.7122  164.9074 C.3     1  UNL1        0.0175
@<TRIPOS>BOND
     1    20    21    1
     2    21    19    1
     3    19    18    1
     4    18     8    1
     5     8     9   ar
     6     9    10   ar
     7    10     7    1
     8     7     1    1
     9     1     2    1
    10     2     3    1
    11     3     4    1
    12     4    22    1
    13    22    23    1
    14    23    24    1
    15    24    25    1
    16    25    26    2
    17    25    27    2
    18    25    28    1
    19    28    30    1
    20    30    31    1
    21    30    32    1
    22    30    33    1
    23     4     5    1
    24     5     6    1
    25    10    11   ar
    26    11    12   ar
    27    12    13   ar
    28    13    14   ar
    29    14    15   ar
    30    15    16   ar
    31    16    17   ar
    32    17     8   ar
    33     6     1    1
    34    16    11   ar
    35    28    29    1
