@<TRIPOS>MOLECULE
*****
 35 38 0 0 0
SMALL
GASTEIGER

@<TRIPOS>ATOM
      1 C         138.0040  140.9409  163.2640 C.2     1  UNL1        0.2494
      2 O         136.7638  141.7637  163.0774 O.2     1  UNL1       -0.2699
      3 N         138.6837  140.3286  162.0753 N.am    1  UNL1       -0.2660
      4 C         139.9240  139.5058  162.2618 C.3     1  UNL1        0.1160
      5 C         140.6036  138.8935  161.0731 C.3     1  UNL1        0.1197
      6 N         140.0430  139.1039  159.6978 N.am    1  UNL1       -0.2555
      7 C         138.8028  139.9266  159.5112 C.2     1  UNL1        0.2497
      8 O         138.2422  140.1370  158.1359 O.2     1  UNL1       -0.2727
      9 C         138.1231  140.5390  160.7000 C.3     1  UNL1        0.1799
     10 C         139.6858  140.3097  167.3899 C.ar    1  UNL1        0.1057
     11 C         140.0794  141.5204  166.5967 C.ar    1  UNL1        0.0185
     12 C         139.5188  141.7308  165.2214 C.ar    1  UNL1        0.0058
     13 C         138.5646  140.7305  164.6393 C.ar    1  UNL1        0.0537
     14 C         138.1710  139.5198  165.4325 C.ar    1  UNL1        0.0058
     15 C         138.7316  139.3094  166.8078 C.ar    1  UNL1        0.0185
     16 C         140.8070  139.8889  170.1405 C.3     1  UNL1        0.1816
     17 S         140.2464  140.0993  168.7652 S.O2    1  UNL1        0.0104
     18 O         138.8747  139.7678  169.2736 O.2     1  UNL1       -0.1686
     19 O         141.6181  140.4308  168.2568 O.2     1  UNL1       -0.1686
     20 C         140.7227  138.4915  158.5091 C.ar    1  UNL1        0.0541
     21 C         142.1945  138.6925  158.3007 C.ar    1  UNL1        0.0180
     22 C         142.8741  138.0801  157.1120 C.ar    1  UNL1        0.0382
     23 C         142.0820  137.2668  156.1317 C.ar    1  UNL1        0.1386
     24 C         140.6102  137.0658  156.3401 C.ar    1  UNL1        0.0382
     25 C         139.9306  137.6782  157.5288 C.ar    1  UNL1        0.0180
     26 O         142.7617  136.6544  154.9429 O.3     1  UNL1       -0.4754
     27 C         142.0004  135.7343  154.0352 C.3     1  UNL1        0.2068
     28 C         142.0422  134.2524  154.2630 C.3     1  UNL1        0.0646
     29 C         141.7235  133.6925  155.6177 C.3     1  UNL1        0.0759
     30 N         142.7724  132.9442  156.3856 N.3     1  UNL1       -0.2726
     31 C         142.8079  131.4452  156.3416 C.3     1  UNL1        0.0721
     32 C         143.8568  130.6970  157.1096 C.3     1  UNL1        0.0174
     33 C         144.8703  131.4476  157.9216 C.3     1  UNL1        0.0029
     34 C         144.8349  132.9465  157.9657 C.3     1  UNL1        0.0174
     35 C         143.7859  133.6949  157.1977 C.3     1  UNL1        0.0721
@<TRIPOS>BOND
     1    16    17    1
     2    17    18    2
     3    17    19    2
     4    17    10    1
     5    10    11   ar
     6    11    12   ar
     7    12    13   ar
     8    13     1    1
     9     1     2    2
    10     1     3   am
    11     3     4    1
    12     4     5    1
    13     5     6    1
    14     6    20    1
    15    20    21   ar
    16    21    22   ar
    17    22    23   ar
    18    23    26    1
    19    26    27    1
    20    27    28    1
    21    28    29    1
    22    29    30    1
    23    30    31    1
    24    31    32    1
    25    32    33    1
    26    33    34    1
    27    34    35    1
    28    23    24   ar
    29    24    25   ar
    30     6     7   am
    31     7     8    2
    32     7     9    1
    33    13    14   ar
    34    14    15   ar
    35    15    10   ar
    36     9     3    1
    37    25    20   ar
    38    35    30    1
@<TRIPOS>MOLECULE
*****
 35 38 0 0 0
SMALL
GASTEIGER

@<TRIPOS>ATOM
      1 C         139.0442  139.6453  158.7286 C.2     1  UNL1        0.2494
      2 O         138.0320  140.4247  157.9425 O.2     1  UNL1       -0.2699
      3 N         139.0207  139.6836  160.2279 N.am    1  UNL1       -0.2660
      4 C         140.0328  138.9042  161.0141 C.3     1  UNL1        0.1160
      5 C         140.0093  138.9425  162.5134 C.3     1  UNL1        0.1197
      6 N         138.9737  139.7603  163.2266 N.am    1  UNL1       -0.2555
      7 C         137.9615  140.5397  162.4405 C.2     1  UNL1        0.2497
      8 O         136.9259  141.3575  163.1537 O.2     1  UNL1       -0.2727
      9 C         137.9850  140.5014  160.9411 C.3     1  UNL1        0.1799
     10 C         142.1511  137.1920  156.5890 C.ar    1  UNL1        0.1057
     11 C         142.5713  138.3263  157.4759 C.ar    1  UNL1        0.0185
     12 C         141.5357  139.1441  158.1891 C.ar    1  UNL1        0.0058
     13 C         140.0798  138.8275  158.0154 C.ar    1  UNL1        0.0537
     14 C         139.6596  137.6931  157.1286 C.ar    1  UNL1        0.0058
     15 C         140.6953  136.8753  156.4154 C.ar    1  UNL1        0.0185
     16 C         144.2225  135.5564  155.1626 C.3     1  UNL1        0.1816
     17 S         143.1868  136.3742  155.8758 S.O2    1  UNL1        0.0104
     18 O         144.1702  137.4983  156.0148 O.2     1  UNL1       -0.1686
     19 O         142.2035  135.2500  155.7369 O.2     1  UNL1       -0.1686
     20 C         138.9502  139.7986  164.7260 C.ar    1  UNL1        0.0541
     21 C         139.6194  140.9239  165.4580 C.ar    1  UNL1        0.0180
     22 C         139.5958  140.9621  166.9573 C.ar    1  UNL1        0.0382
     23 C         138.9032  139.8751  167.7245 C.ar    1  UNL1        0.1386
     24 C         138.2340  138.7499  166.9925 C.ar    1  UNL1        0.0382
     25 C         138.2575  138.7116  165.4932 C.ar    1  UNL1        0.0180
     26 O         138.8797  139.9134  169.2239 O.3     1  UNL1       -0.4754
     27 C         139.6328  140.9825  169.9587 C.3     1  UNL1        0.2068
     28 C         140.7053  140.6063  170.9376 C.3     1  UNL1        0.0646
     29 C         142.1467  140.6511  170.5248 C.3     1  UNL1        0.0759
     30 N         142.5085  140.7299  169.0713 N.3     1  UNL1       -0.2726
     31 C         142.7843  142.0616  168.4382 C.3     1  UNL1        0.0721
     32 C         143.1461  142.1404  166.9846 C.3     1  UNL1        0.0174
     33 C         143.2321  140.8877  166.1641 C.3     1  UNL1        0.0029
     34 C         142.9564  139.5561  166.7972 C.3     1  UNL1        0.0174
     35 C         142.5946  139.4772  168.2508 C.3     1  UNL1        0.0721
@<TRIPOS>BOND
     1    16    17    1
     2    17    18    2
     3    17    19    2
     4    17    10    1
     5    10    11   ar
     6    11    12   ar
     7    12    13   ar
     8    13     1    1
     9     1     2    2
    10     1     3   am
    11     3     4    1
    12     4     5    1
    13     5     6    1
    14     6    20    1
    15    20    21   ar
    16    21    22   ar
    17    22    23   ar
    18    23    26    1
    19    26    27    1
    20    27    28    1
    21    28    29    1
    22    29    30    1
    23    30    31    1
    24    31    32    1
    25    32    33    1
    26    33    34    1
    27    34    35    1
    28    23    24   ar
    29    24    25   ar
    30     6     7   am
    31     7     8    2
    32     7     9    1
    33    13    14   ar
    34    14    15   ar
    35    15    10   ar
    36     9     3    1
    37    25    20   ar
    38    35    30    1
@<TRIPOS>MOLECULE
*****
 35 38 0 0 0
SMALL
GASTEIGER

@<TRIPOS>ATOM
      1 C         143.7220  137.0372  156.0181 C.2     1  UNL1        0.2494
      2 O         145.0004  137.4824  155.3721 O.2     1  UNL1       -0.2699
      3 N         142.9284  137.9990  156.8517 N.am    1  UNL1       -0.2660
      4 C         141.6499  137.5539  157.4978 C.3     1  UNL1        0.1160
      5 C         140.8563  138.5157  158.3315 C.3     1  UNL1        0.1197
      6 N         141.3411  139.9227  158.5192 N.am    1  UNL1       -0.2555
      7 C         142.6196  140.3679  157.8732 C.2     1  UNL1        0.2497
      8 O         143.1044  141.7749  158.0609 O.2     1  UNL1       -0.2727
      9 C         143.4132  139.4060  157.0394 C.3     1  UNL1        0.1799
     10 C         142.2674  132.8162  155.4550 C.ar    1  UNL1        0.1057
     11 C         142.9732  133.2037  156.7205 C.ar    1  UNL1        0.0185
     12 C         143.4581  134.6107  156.9082 C.ar    1  UNL1        0.0058
     13 C         143.2371  135.6302  155.8304 C.ar    1  UNL1        0.0537
     14 C         142.5313  135.2427  154.5649 C.ar    1  UNL1        0.0058
     15 C         142.0465  133.8356  154.3772 C.ar    1  UNL1        0.0185
     16 C         141.2977  130.0021  155.0796 C.3     1  UNL1        0.1816
     17 S         141.7826  131.4091  155.2673 S.O2    1  UNL1        0.0104
     18 O         140.7034  131.9034  154.3502 O.2     1  UNL1       -0.1686
     19 O         142.8618  130.9149  156.1844 O.2     1  UNL1       -0.1686
     20 C         140.5475  140.8845  159.3529 C.ar    1  UNL1        0.0541
     21 C         139.3766  141.6065  158.7548 C.ar    1  UNL1        0.0180
     22 C         138.5831  142.5683  159.5885 C.ar    1  UNL1        0.0382
     23 C         138.9603  142.8081  161.0203 C.ar    1  UNL1        0.1386
     24 C         140.1311  142.0861  161.6185 C.ar    1  UNL1        0.0382
     25 C         140.9247  141.1243  160.7847 C.ar    1  UNL1        0.0180
     26 O         138.1666  143.7699  161.8541 O.3     1  UNL1       -0.4754
     27 C         137.6044  143.3317  163.1738 C.3     1  UNL1        0.2068
     28 C         138.2334  143.8041  164.4510 C.3     1  UNL1        0.0646
     29 C         139.2842  144.8740  164.4186 C.3     1  UNL1        0.0759
     30 N         140.7347  144.4988  164.3467 N.3     1  UNL1       -0.2726
     31 C         141.2291  143.2751  165.0598 C.3     1  UNL1        0.0721
     32 C         142.6796  142.8998  164.9879 C.3     1  UNL1        0.0174
     33 C         143.6358  143.7482  164.2030 C.3     1  UNL1        0.0029
     34 C         143.1415  144.9718  163.4900 C.3     1  UNL1        0.0174
     35 C         141.6909  145.3471  163.5618 C.3     1  UNL1        0.0721
@<TRIPOS>BOND
     1    16    17    1
     2    17    18    2
     3    17    19    2
     4    17    10    1
     5    10    11   ar
     6    11    12   ar
     7    12    13   ar
     8    13     1    1
     9     1     2    2
    10     1     3   am
    11     3     4    1
    12     4     5    1
    13     5     6    1
    14     6    20    1
    15    20    21   ar
    16    21    22   ar
    17    22    23   ar
    18    23    26    1
    19    26    27    1
    20    27    28    1
    21    28    29    1
    22    29    30    1
    23    30    31    1
    24    31    32    1
    25    32    33    1
    26    33    34    1
    27    34    35    1
    28    23    24   ar
    29    24    25   ar
    30     6     7   am
    31     7     8    2
    32     7     9    1
    33    13    14   ar
    34    14    15   ar
    35    15    10   ar
    36     9     3    1
    37    25    20   ar
    38    35    30    1
@<TRIPOS>MOLECULE
*****
 35 38 0 0 0
SMALL
GASTEIGER

@<TRIPOS>ATOM
      1 C         143.7746  137.0855  155.9685 C.2     1  UNL1        0.2494
      2 O         145.0666  137.5134  155.3380 O.2     1  UNL1       -0.2699
      3 N         142.9910  138.0539  156.8040 N.am    1  UNL1       -0.2660
      4 C         141.6989  137.6260  157.4346 C.3     1  UNL1        0.1160
      5 C         140.9153  138.5944  158.2701 C.3     1  UNL1        0.1197
      6 N         141.4236  139.9906  158.4751 N.am    1  UNL1       -0.2555
      7 C         142.7156  140.4185  157.8445 C.2     1  UNL1        0.2497
      8 O         143.2239  141.8148  158.0495 O.2     1  UNL1       -0.2727
      9 C         143.4993  139.4502  157.0090 C.3     1  UNL1        0.1799
     10 C         142.2496  132.8967  155.3536 C.ar    1  UNL1        0.1057
     11 C         143.1119  133.2145  156.5392 C.ar    1  UNL1        0.0185
     12 C         143.6202  134.6107  156.7441 C.ar    1  UNL1        0.0058
     13 C         143.2663  135.6892  155.7636 C.ar    1  UNL1        0.0537
     14 C         142.4041  135.3715  154.5780 C.ar    1  UNL1        0.0058
     15 C         141.8957  133.9752  154.3731 C.ar    1  UNL1        0.0185
     16 C         141.2329  130.1041  154.9437 C.3     1  UNL1        0.1816
     17 S         141.7413  131.5004  155.1487 S.O2    1  UNL1        0.0104
     18 O         141.0259  131.9432  153.9068 O.2     1  UNL1       -0.1686
     19 O         142.4566  131.0577  156.3905 O.2     1  UNL1       -0.1686
     20 C         140.6399  140.9590  159.3106 C.ar    1  UNL1        0.0541
     21 C         139.2924  141.4289  158.8486 C.ar    1  UNL1        0.0180
     22 C         138.5088  142.3972  159.6842 C.ar    1  UNL1        0.0382
     23 C         139.0726  142.8957  160.9817 C.ar    1  UNL1        0.1386
     24 C         140.4201  142.4259  161.4437 C.ar    1  UNL1        0.0382
     25 C         141.2037  141.4575  160.6082 C.ar    1  UNL1        0.0180
     26 O         138.2889  143.8641  161.8173 O.3     1  UNL1       -0.4754
     27 C         137.7647  143.4444  163.1585 C.3     1  UNL1        0.2068
     28 C         137.2797  142.0406  163.3683 C.3     1  UNL1        0.0646
     29 C         138.1247  141.0606  164.1271 C.3     1  UNL1        0.0759
     30 N         138.8825  139.9960  163.3907 N.3     1  UNL1       -0.2726
     31 C         138.2694  139.3302  162.1945 C.3     1  UNL1        0.0721
     32 C         139.0273  138.2656  161.4581 C.3     1  UNL1        0.0174
     33 C         140.3982  137.8666  161.9180 C.3     1  UNL1        0.0029
     34 C         141.0113  138.5324  163.1142 C.3     1  UNL1        0.0174
     35 C         140.2534  139.5970  163.8506 C.3     1  UNL1        0.0721
@<TRIPOS>BOND
     1    16    17    1
     2    17    18    2
     3    17    19    2
     4    17    10    1
     5    10    11   ar
     6    11    12   ar
     7    12    13   ar
     8    13     1    1
     9     1     2    2
    10     1     3   am
    11     3     4    1
    12     4     5    1
    13     5     6    1
    14     6    20    1
    15    20    21   ar
    16    21    22   ar
    17    22    23   ar
    18    23    26    1
    19    26    27    1
    20    27    28    1
    21    28    29    1
    22    29    30    1
    23    30    31    1
    24    31    32    1
    25    32    33    1
    26    33    34    1
    27    34    35    1
    28    23    24   ar
    29    24    25   ar
    30     6     7   am
    31     7     8    2
    32     7     9    1
    33    13    14   ar
    34    14    15   ar
    35    15    10   ar
    36     9     3    1
    37    25    20   ar
    38    35    30    1
@<TRIPOS>MOLECULE
*****
 35 38 0 0 0
SMALL
GASTEIGER

@<TRIPOS>ATOM
      1 C         138.7601  146.3633  155.4475 C.2     1  UNL1        0.2494
      2 O         137.5591  145.6924  154.8499 O.2     1  UNL1       -0.2699
      3 N         139.6603  145.6023  156.3751 N.am    1  UNL1       -0.2660
      4 C         140.8615  146.2732  156.9728 C.3     1  UNL1        0.1160
      5 C         141.7616  145.5122  157.9004 C.3     1  UNL1        0.1197
      6 N         141.4607  144.0802  158.2304 N.am    1  UNL1       -0.2555
      7 C         140.2596  143.4093  157.6328 C.2     1  UNL1        0.2497
      8 O         139.9586  141.9773  157.9628 O.2     1  UNL1       -0.2727
      9 C         139.3593  144.1703  156.7051 C.3     1  UNL1        0.1799
     10 C         139.6630  150.6592  154.4576 C.ar    1  UNL1        0.1057
     11 C         140.2792  149.5574  153.6476 C.ar    1  UNL1        0.0185
     12 C         139.9783  148.1255  153.9775 C.ar    1  UNL1        0.0058
     13 C         139.0611  147.7953  155.1175 C.ar    1  UNL1        0.0537
     14 C         138.4448  148.8971  155.9276 C.ar    1  UNL1        0.0058
     15 C         138.7458  150.3291  155.5976 C.ar    1  UNL1        0.0185
     16 C         140.2649  153.5232  153.7976 C.3     1  UNL1        0.1816
     17 S         139.9639  152.0912  154.1276 S.O2    1  UNL1        0.0104
     18 O         141.3235  151.9477  154.7448 O.2     1  UNL1       -0.1686
     19 O         138.6043  152.2347  153.5104 O.2     1  UNL1       -0.1686
     20 C         142.3609  143.3191  159.1581 C.ar    1  UNL1        0.0541
     21 C         143.7412  142.9339  158.7152 C.ar    1  UNL1        0.0180
     22 C         144.6414  142.1729  159.6429 C.ar    1  UNL1        0.0382
     23 C         144.1612  141.7971  161.0133 C.ar    1  UNL1        0.1386
     24 C         142.7808  142.1824  161.4562 C.ar    1  UNL1        0.0382
     25 C         141.8807  142.9434  160.5285 C.ar    1  UNL1        0.0180
     26 O         145.0614  141.0361  161.9410 O.3     1  UNL1       -0.4754
     27 C         144.8461  141.1103  163.4236 C.3     1  UNL1        0.2068
     28 C         145.2276  142.3508  164.1756 C.3     1  UNL1        0.0646
     29 C         144.2916  142.9266  165.1967 C.3     1  UNL1        0.0759
     30 N         143.0058  143.5640  164.7604 N.3     1  UNL1       -0.2726
     31 C         143.0317  144.7899  163.8964 C.3     1  UNL1        0.0721
     32 C         141.7458  145.4272  163.4601 C.3     1  UNL1        0.0174
     33 C         140.4341  144.8387  163.8878 C.3     1  UNL1        0.0029
     34 C         140.4082  143.6128  164.7518 C.3     1  UNL1        0.0174
     35 C         141.6940  142.9754  165.1881 C.3     1  UNL1        0.0721
@<TRIPOS>BOND
     1    16    17    1
     2    17    18    2
     3    17    19    2
     4    17    10    1
     5    10    11   ar
     6    11    12   ar
     7    12    13   ar
     8    13     1    1
     9     1     2    2
    10     1     3   am
    11     3     4    1
    12     4     5    1
    13     5     6    1
    14     6    20    1
    15    20    21   ar
    16    21    22   ar
    17    22    23   ar
    18    23    26    1
    19    26    27    1
    20    27    28    1
    21    28    29    1
    22    29    30    1
    23    30    31    1
    24    31    32    1
    25    32    33    1
    26    33    34    1
    27    34    35    1
    28    23    24   ar
    29    24    25   ar
    30     6     7   am
    31     7     8    2
    32     7     9    1
    33    13    14   ar
    34    14    15   ar
    35    15    10   ar
    36     9     3    1
    37    25    20   ar
    38    35    30    1
@<TRIPOS>MOLECULE
*****
 35 38 0 0 0
SMALL
GASTEIGER

@<TRIPOS>ATOM
      1 C         143.2307  138.3426  156.4546 C.2     1  UNL1        0.2494
      2 O         143.7226  139.2888  155.3998 O.2     1  UNL1       -0.2699
      3 N         143.1502  138.7893  157.8842 N.am    1  UNL1       -0.2660
      4 C         142.6583  137.8431  158.9392 C.3     1  UNL1        0.1160
      5 C         142.5777  138.2899  160.3688 C.3     1  UNL1        0.1197
      6 N         142.9890  139.6829  160.7436 N.am    1  UNL1       -0.2555
      7 C         143.4809  140.6291  159.6887 C.2     1  UNL1        0.2497
      8 O         143.8922  142.0220  160.0635 O.2     1  UNL1       -0.2727
      9 C         143.5615  140.1823  158.2590 C.3     1  UNL1        0.1799
     10 C         141.9968  134.1636  155.3303 C.ar    1  UNL1        0.1057
     11 C         143.4165  134.4464  155.7231 C.ar    1  UNL1        0.0185
     12 C         143.8278  135.8393  156.0979 C.ar    1  UNL1        0.0058
     13 C         142.8194  136.9496  156.0798 C.ar    1  UNL1        0.0537
     14 C         141.3997  136.6669  155.6870 C.ar    1  UNL1        0.0058
     15 C         140.9884  135.2739  155.3122 C.ar    1  UNL1        0.0185
     16 C         141.1742  131.3777  154.5807 C.3     1  UNL1        0.1816
     17 S         141.5855  132.7707  154.9555 S.O2    1  UNL1        0.0104
     18 O         141.1164  133.2684  153.6205 O.2     1  UNL1       -0.1686
     19 O         142.0546  132.2730  156.2905 O.2     1  UNL1       -0.1686
     20 C         142.9085  140.1296  162.1733 C.ar    1  UNL1        0.0541
     21 C         143.9172  139.6406  163.1698 C.ar    1  UNL1        0.0180
     22 C         143.8366  140.0873  164.5995 C.ar    1  UNL1        0.0382
     23 C         142.7472  141.0231  165.0325 C.ar    1  UNL1        0.1386
     24 C         141.7385  141.5122  164.0360 C.ar    1  UNL1        0.0382
     25 C         141.8191  141.0654  162.6063 C.ar    1  UNL1        0.0180
     26 O         142.6667  141.4699  166.4622 O.3     1  UNL1       -0.4754
     27 C         141.3559  141.4230  167.1899 C.3     1  UNL1        0.2068
     28 C         140.7406  140.1012  167.5422 C.3     1  UNL1        0.0646
     29 C         139.4991  139.6402  166.8376 C.3     1  UNL1        0.0759
     30 N         139.5946  139.0358  165.4681 N.3     1  UNL1       -0.2726
     31 C         138.5685  139.3718  164.4268 C.3     1  UNL1        0.0721
     32 C         138.6640  138.7675  163.0573 C.3     1  UNL1        0.0174
     33 C         139.7855  137.8270  162.7290 C.3     1  UNL1        0.0029
     34 C         140.8116  137.4910  163.7703 C.3     1  UNL1        0.0174
     35 C         140.7161  138.0953  165.1399 C.3     1  UNL1        0.0721
@<TRIPOS>BOND
     1    16    17    1
     2    17    18    2
     3    17    19    2
     4    17    10    1
     5    10    11   ar
     6    11    12   ar
     7    12    13   ar
     8    13     1    1
     9     1     2    2
    10     1     3   am
    11     3     4    1
    12     4     5    1
    13     5     6    1
    14     6    20    1
    15    20    21   ar
    16    21    22   ar
    17    22    23   ar
    18    23    26    1
    19    26    27    1
    20    27    28    1
    21    28    29    1
    22    29    30    1
    23    30    31    1
    24    31    32    1
    25    32    33    1
    26    33    34    1
    27    34    35    1
    28    23    24   ar
    29    24    25   ar
    30     6     7   am
    31     7     8    2
    32     7     9    1
    33    13    14   ar
    34    14    15   ar
    35    15    10   ar
    36     9     3    1
    37    25    20   ar
    38    35    30    1
@<TRIPOS>MOLECULE
*****
 35 38 0 0 0
SMALL
GASTEIGER

@<TRIPOS>ATOM
      1 C         139.0149  145.7417  155.7464 C.2     1  UNL1        0.2494
      2 O         138.0095  144.8858  155.0347 O.2     1  UNL1       -0.2699
      3 N         139.8059  145.1767  156.8888 N.am    1  UNL1       -0.2660
      4 C         140.8114  146.0326  157.6007 C.3     1  UNL1        0.1160
      5 C         141.6023  145.4677  158.7431 C.3     1  UNL1        0.1197
      6 N         141.3879  144.0469  159.1737 N.am    1  UNL1       -0.2555
      7 C         140.3825  143.1911  158.4620 C.2     1  UNL1        0.2497
      8 O         140.1681  141.7703  158.8926 O.2     1  UNL1       -0.2727
      9 C         139.5915  143.7560  157.3195 C.3     1  UNL1        0.1799
     10 C         139.6581  150.0040  154.4545 C.ar    1  UNL1        0.1057
     11 C         138.7995  149.7032  155.6471 C.ar    1  UNL1        0.0185
     12 C         138.5851  148.2824  156.0777 C.ar    1  UNL1        0.0058
     13 C         139.2293  147.1624  155.3158 C.ar    1  UNL1        0.0537
     14 C         140.0879  147.4632  154.1232 C.ar    1  UNL1        0.0058
     15 C         140.3023  148.8840  153.6926 C.ar    1  UNL1        0.0185
     16 C         140.0869  152.8455  153.5932 C.3     1  UNL1        0.1816
     17 S         139.8725  151.4247  154.0239 S.O2    1  UNL1        0.0104
     18 O         139.8234  151.8664  155.4565 O.2     1  UNL1       -0.1686
     19 O         139.9217  150.9831  152.5912 O.2     1  UNL1       -0.1686
     20 C         142.1790  143.4820  160.3162 C.ar    1  UNL1        0.0541
     21 C         141.5978  143.4732  161.6990 C.ar    1  UNL1        0.0180
     22 C         142.3889  142.9083  162.8414 C.ar    1  UNL1        0.0382
     23 C         143.7611  142.3522  162.6010 C.ar    1  UNL1        0.1386
     24 C         144.3423  142.3610  161.2182 C.ar    1  UNL1        0.0382
     25 C         143.5512  142.9259  160.0758 C.ar    1  UNL1        0.0180
     26 O         144.5521  141.7873  163.7435 O.3     1  UNL1       -0.4754
     27 C         145.0782  140.3845  163.6703 C.3     1  UNL1        0.2068
     28 C         144.1755  139.2278  163.9816 C.3     1  UNL1        0.0646
     29 C         143.3676  138.5918  162.8893 C.3     1  UNL1        0.0759
     30 N         141.9233  138.2596  163.1210 N.3     1  UNL1       -0.2726
     31 C         141.4336  137.9702  164.5090 C.3     1  UNL1        0.0721
     32 C         139.9893  137.6380  164.7407 C.3     1  UNL1        0.0174
     33 C         139.0347  137.5951  163.5844 C.3     1  UNL1        0.0029
     34 C         139.5244  137.8844  162.1965 C.3     1  UNL1        0.0174
     35 C         140.9688  138.2166  161.9647 C.3     1  UNL1        0.0721
@<TRIPOS>BOND
     1    16    17    1
     2    17    18    2
     3    17    19    2
     4    17    10    1
     5    10    11   ar
     6    11    12   ar
     7    12    13   ar
     8    13     1    1
     9     1     2    2
    10     1     3   am
    11     3     4    1
    12     4     5    1
    13     5     6    1
    14     6    20    1
    15    20    21   ar
    16    21    22   ar
    17    22    23   ar
    18    23    26    1
    19    26    27    1
    20    27    28    1
    21    28    29    1
    22    29    30    1
    23    30    31    1
    24    31    32    1
    25    32    33    1
    26    33    34    1
    27    34    35    1
    28    23    24   ar
    29    24    25   ar
    30     6     7   am
    31     7     8    2
    32     7     9    1
    33    13    14   ar
    34    14    15   ar
    35    15    10   ar
    36     9     3    1
    37    25    20   ar
    38    35    30    1
@<TRIPOS>MOLECULE
*****
 35 38 0 0 0
SMALL
GASTEIGER

@<TRIPOS>ATOM
      1 C         140.3706  138.1932  163.3843 C.2     1  UNL1        0.2494
      2 O         140.8031  136.7665  163.2190 O.2     1  UNL1       -0.2699
      3 N         140.1256  139.0474  162.1759 N.am    1  UNL1       -0.2660
      4 C         139.6930  140.4742  162.3411 C.3     1  UNL1        0.1160
      5 C         139.4480  141.3283  161.1327 C.3     1  UNL1        0.1197
      6 N         139.6356  140.7558  159.7590 N.am    1  UNL1       -0.2555
      7 C         140.0681  139.3291  159.5937 C.2     1  UNL1        0.2497
      8 O         140.2557  138.7565  158.2200 O.2     1  UNL1       -0.2727
      9 C         140.3131  138.4748  160.8022 C.3     1  UNL1        0.1799
     10 C         139.8080  139.9108  167.5054 C.ar    1  UNL1        0.1057
     11 C         138.6854  139.1693  166.8422 C.ar    1  UNL1        0.0185
     12 C         138.8729  138.5968  165.4685 C.ar    1  UNL1        0.0058
     13 C         140.1830  138.7658  164.7580 C.ar    1  UNL1        0.0537
     14 C         141.3057  139.5073  165.4211 C.ar    1  UNL1        0.0058
     15 C         141.1181  140.0798  166.7948 C.ar    1  UNL1        0.0185
     16 C         139.4329  141.0559  170.2527 C.3     1  UNL1        0.1816
     17 S         139.6204  140.4834  168.8790 S.O2    1  UNL1        0.0104
     18 O         138.5113  139.5065  169.1348 O.2     1  UNL1       -0.1686
     19 O         140.7296  141.4603  168.6233 O.2     1  UNL1       -0.1686
     20 C         139.3906  141.6101  158.5505 C.ar    1  UNL1        0.0541
     21 C         140.5458  142.2409  157.8313 C.ar    1  UNL1        0.0180
     22 C         140.3008  143.0951  156.6229 C.ar    1  UNL1        0.0382
     23 C         138.9005  143.3184  156.1337 C.ar    1  UNL1        0.1386
     24 C         137.7452  142.6875  156.8530 C.ar    1  UNL1        0.0382
     25 C         137.9903  141.8334  158.0614 C.ar    1  UNL1        0.0180
     26 O         138.6554  144.1727  154.9253 O.3     1  UNL1       -0.4754
     27 C         138.3363  145.6292  155.0886 C.3     1  UNL1        0.2068
     28 C         139.3165  146.5404  155.7660 C.3     1  UNL1        0.0646
     29 C         138.8501  147.8383  156.3558 C.3     1  UNL1        0.0759
     30 N         138.9553  149.1049  155.5593 N.3     1  UNL1       -0.2726
     31 C         138.3862  150.3821  156.1026 C.3     1  UNL1        0.0721
     32 C         138.4914  151.6487  155.3060 C.3     1  UNL1        0.0174
     33 C         139.1656  151.6382  153.9661 C.3     1  UNL1        0.0029
     34 C         139.7346  150.3612  153.4228 C.3     1  UNL1        0.0174
     35 C         139.6295  149.0944  154.2194 C.3     1  UNL1        0.0721
@<TRIPOS>BOND
     1    16    17    1
     2    17    18    2
     3    17    19    2
     4    17    10    1
     5    10    11   ar
     6    11    12   ar
     7    12    13   ar
     8    13     1    1
     9     1     2    2
    10     1     3   am
    11     3     4    1
    12     4     5    1
    13     5     6    1
    14     6    20    1
    15    20    21   ar
    16    21    22   ar
    17    22    23   ar
    18    23    26    1
    19    26    27    1
    20    27    28    1
    21    28    29    1
    22    29    30    1
    23    30    31    1
    24    31    32    1
    25    32    33    1
    26    33    34    1
    27    34    35    1
    28    23    24   ar
    29    24    25   ar
    30     6     7   am
    31     7     8    2
    32     7     9    1
    33    13    14   ar
    34    14    15   ar
    35    15    10   ar
    36     9     3    1
    37    25    20   ar
    38    35    30    1
@<TRIPOS>MOLECULE
*****
 35 38 0 0 0
SMALL
GASTEIGER

@<TRIPOS>ATOM
      1 C         143.3980  138.8278  155.8886 C.2     1  UNL1        0.2494
      2 O         143.7282  139.6388  154.6708 O.2     1  UNL1       -0.2699
      3 N         143.4821  139.4513  157.2503 N.am    1  UNL1       -0.2660
      4 C         143.1519  138.6403  158.4682 C.3     1  UNL1        0.1160
      5 C         143.2359  139.2637  159.8299 C.3     1  UNL1        0.1197
      6 N         143.6501  140.6982  159.9737 N.am    1  UNL1       -0.2555
      7 C         143.9802  141.5093  158.7558 C.2     1  UNL1        0.2497
      8 O         144.3943  142.9438  158.8997 O.2     1  UNL1       -0.2727
      9 C         143.8962  140.8858  157.3941 C.3     1  UNL1        0.1799
     10 C         142.1556  134.5243  155.4572 C.ar    1  UNL1        0.1057
     11 C         143.6084  134.8768  155.5804 C.ar    1  UNL1        0.0185
     12 C         144.0225  136.3113  155.7242 C.ar    1  UNL1        0.0058
     13 C         142.9839  137.3933  155.7448 C.ar    1  UNL1        0.0537
     14 C         141.5312  137.0408  155.6216 C.ar    1  UNL1        0.0058
     15 C         141.1170  135.6063  155.4777 C.ar    1  UNL1        0.0185
     16 C         141.3274  131.6553  155.1696 C.3     1  UNL1        0.1816
     17 S         141.7415  133.0898  155.3134 S.O2    1  UNL1        0.0104
     18 O         142.3200  132.7874  156.6639 O.2     1  UNL1       -0.1686
     19 O         141.1630  133.3922  153.9629 O.2     1  UNL1       -0.1686
     20 C         143.7341  141.3217  161.3354 C.ar    1  UNL1        0.0541
     21 C         144.7816  140.8640  162.3066 C.ar    1  UNL1        0.0180
     22 C         144.8656  141.4874  163.6682 C.ar    1  UNL1        0.0382
     23 C         143.9020  142.5686  164.0588 C.ar    1  UNL1        0.1386
     24 C         142.8545  143.0264  163.0877 C.ar    1  UNL1        0.0382
     25 C         142.7705  142.4029  161.7260 C.ar    1  UNL1        0.0180
     26 O         143.9860  143.1921  165.4205 O.3     1  UNL1       -0.4754
     27 C         143.3943  142.4881  166.6055 C.3     1  UNL1        0.2068
     28 C         142.1443  141.6743  166.4472 C.3     1  UNL1        0.0646
     29 C         142.2021  140.1801  166.5655 C.3     1  UNL1        0.0759
     30 N         141.0439  139.3459  166.1044 N.3     1  UNL1       -0.2726
     31 C         141.2633  138.2392  165.1157 C.3     1  UNL1        0.0721
     32 C         140.1051  137.4050  164.6545 C.3     1  UNL1        0.0174
     33 C         138.7276  137.6774  165.1820 C.3     1  UNL1        0.0029
     34 C         138.5082  138.7839  166.1706 C.3     1  UNL1        0.0174
     35 C         139.6664  139.6182  166.6318 C.3     1  UNL1        0.0721
@<TRIPOS>BOND
     1    16    17    1
     2    17    18    2
     3    17    19    2
     4    17    10    1
     5    10    11   ar
     6    11    12   ar
     7    12    13   ar
     8    13     1    1
     9     1     2    2
    10     1     3   am
    11     3     4    1
    12     4     5    1
    13     5     6    1
    14     6    20    1
    15    20    21   ar
    16    21    22   ar
    17    22    23   ar
    18    23    26    1
    19    26    27    1
    20    27    28    1
    21    28    29    1
    22    29    30    1
    23    30    31    1
    24    31    32    1
    25    32    33    1
    26    33    34    1
    27    34    35    1
    28    23    24   ar
    29    24    25   ar
    30     6     7   am
    31     7     8    2
    32     7     9    1
    33    13    14   ar
    34    14    15   ar
    35    15    10   ar
    36     9     3    1
    37    25    20   ar
    38    35    30    1
