@<TRIPOS>MOLECULE
*****
 31 35 0 0 0
SMALL
GASTEIGER

@<TRIPOS>ATOM
      1 C         139.3746  138.1411  162.0004 C.3     1  UNL1        0.0771
      2 N         139.4975  138.6464  163.4074 N.3     1  UNL1       -0.2695
      3 C         138.5049  139.6382  163.9375 C.3     1  UNL1        0.0938
      4 C         138.6278  140.1436  165.3444 C.3     1  UNL1        0.1081
      5 N         139.7433  139.6571  166.2213 N.pl3   1  UNL1       -0.3046
      6 C         140.7359  138.6653  165.6913 C.3     1  UNL1        0.1081
      7 C         140.6131  138.1599  164.2843 C.3     1  UNL1        0.0938
      8 C         139.8662  140.1624  167.6282 C.ar    1  UNL1        0.0484
      9 C         138.8103  139.8286  168.6400 C.ar    1  UNL1        0.0146
     10 C         138.9332  140.3340  170.0470 C.ar    1  UNL1        0.0018
     11 C         140.1121  141.1731  170.4422 C.ar    1  UNL1        0.0066
     12 C         141.1680  141.5069  169.4304 C.ar    1  UNL1        0.0307
     13 S         142.4331  142.3071  169.5267 S.2     1  UNL1       -0.0864
     14 C         143.0920  142.2963  168.1792 C.ar    1  UNL1        0.0355
     15 C         142.2341  141.4894  167.2502 C.ar    1  UNL1        0.0087
     16 C         141.0451  141.0015  168.0235 C.ar    1  UNL1        0.0198
     17 C         140.2284  138.7277  160.9156 C.3     1  UNL1        0.0497
     18 C         143.0552  137.7506  161.1487 C.3     1  UNL1        0.0520
     19 C         142.7409  139.1992  161.3793 C.ar    1  UNL1        0.0614
     20 N         143.8401  140.1590  161.7263 N.ar    1  UNL1       -0.2343
     21 C         143.5258  141.6076  161.9569 C.ar    1  UNL1        0.1491
     22 N         142.1124  142.0961  161.8404 N.ar    1  UNL1       -0.2824
     23 C         141.0132  141.1361  161.4933 C.ar    1  UNL1        0.2589
     24 O         139.5998  141.6247  161.3767 O.2     1  UNL1       -0.2672
     25 C         141.3275  139.6877  161.2627 C.ar    1  UNL1        0.0489
     26 C         141.7981  143.5446  162.0709 C.3     1  UNL1        0.1103
     27 C         142.8972  144.5044  162.4180 C.3     1  UNL1        0.0276
     28 C         144.3106  144.0159  162.5345 C.3     1  UNL1        0.0390
     29 C         144.6249  142.5674  162.3040 C.3     1  UNL1        0.1668
     30 O         146.0383  142.0789  162.4205 O.3     1  UNL1       -0.3770
     31 H         146.0836  141.1507  162.1424 H       1  UNL1        0.2109
@<TRIPOS>BOND
     1    18    19    1
     2    19    20   ar
     3    20    21   ar
     4    21    22   ar
     5    22    23   ar
     6    23    24    2
     7    23    25   ar
     8    25    17    1
     9    17     1    1
    10     1     2    1
    11     2     3    1
    12     3     4    1
    13     4     5    1
    14     5     8    1
    15     8     9   ar
    16     9    10   ar
    17    10    11   ar
    18    11    12   ar
    19    12    13   ar
    20    13    14   ar
    21    14    15   ar
    22    15    16   ar
    23     5     6    1
    24     6     7    1
    25    22    26    1
    26    26    27    1
    27    27    28    1
    28    28    29    1
    29    29    30    1
    30    25    19   ar
    31     7     2    1
    32    29    21    1
    33    16     8   ar
    34    16    12   ar
    35    30    31    1
@<TRIPOS>MOLECULE
*****
 31 35 0 0 0
SMALL
GASTEIGER

@<TRIPOS>ATOM
      1 C         138.6135  138.2168  161.9149 C.3     1  UNL1        0.0771
      2 N         138.9082  138.7085  163.3010 N.3     1  UNL1       -0.2695
      3 C         138.1782  139.9008  163.8448 C.3     1  UNL1        0.0938
      4 C         138.4728  140.3926  165.2308 C.3     1  UNL1        0.1081
      5 N         139.4974  139.6922  166.0732 N.pl3   1  UNL1       -0.3046
      6 C         140.2274  138.4999  165.5295 C.3     1  UNL1        0.1081
      7 C         139.9328  138.0081  164.1433 C.3     1  UNL1        0.0938
      8 C         139.7920  140.1839  167.4593 C.ar    1  UNL1        0.0484
      9 C         138.8587  139.8543  168.5863 C.ar    1  UNL1        0.0146
     10 C         139.1534  140.3461  169.9725 C.ar    1  UNL1        0.0018
     11 C         140.3814  141.1675  170.2316 C.ar    1  UNL1        0.0066
     12 C         141.3147  141.4972  169.1046 C.ar    1  UNL1        0.0307
     13 S         142.5926  142.2812  169.0563 S.2     1  UNL1       -0.0864
     14 C         143.0877  142.2740  167.6404 C.ar    1  UNL1        0.0355
     15 C         142.1158  141.4855  166.8136 C.ar    1  UNL1        0.0087
     16 C         141.0201  141.0054  167.7185 C.ar    1  UNL1        0.0198
     17 C         139.3628  138.7804  160.7441 C.3     1  UNL1        0.0497
     18 C         138.3344  141.5795  160.4161 C.3     1  UNL1        0.0520
     19 C         139.7728  141.3458  160.7719 C.ar    1  UNL1        0.0614
     20 N         140.6969  142.5117  160.9637 N.ar    1  UNL1       -0.2343
     21 C         142.1353  142.2780  161.3195 C.ar    1  UNL1        0.1491
     22 N         142.6495  140.8784  161.4834 N.ar    1  UNL1       -0.2824
     23 C         141.7253  139.7126  161.2916 C.ar    1  UNL1        0.2589
     24 O         142.2395  138.3130  161.4556 O.2     1  UNL1       -0.2672
     25 C         140.2870  139.9463  160.9359 C.ar    1  UNL1        0.0489
     26 C         144.0878  140.6447  161.8392 C.3     1  UNL1        0.1103
     27 C         145.0119  141.8106  162.0310 C.3     1  UNL1        0.0276
     28 C         144.4977  143.2101  161.8670 C.3     1  UNL1        0.0390
     29 C         143.0594  143.4438  161.5113 C.3     1  UNL1        0.1668
     30 O         142.5452  144.8433  161.3473 O.3     1  UNL1       -0.3770
     31 H         141.5836  144.8219  161.2217 H       1  UNL1        0.2109
@<TRIPOS>BOND
     1    18    19    1
     2    19    20   ar
     3    20    21   ar
     4    21    22   ar
     5    22    23   ar
     6    23    24    2
     7    23    25   ar
     8    25    17    1
     9    17     1    1
    10     1     2    1
    11     2     3    1
    12     3     4    1
    13     4     5    1
    14     5     8    1
    15     8     9   ar
    16     9    10   ar
    17    10    11   ar
    18    11    12   ar
    19    12    13   ar
    20    13    14   ar
    21    14    15   ar
    22    15    16   ar
    23     5     6    1
    24     6     7    1
    25    22    26    1
    26    26    27    1
    27    27    28    1
    28    28    29    1
    29    29    30    1
    30    25    19   ar
    31     7     2    1
    32    29    21    1
    33    16     8   ar
    34    16    12   ar
    35    30    31    1
@<TRIPOS>MOLECULE
*****
 31 35 0 0 0
SMALL
GASTEIGER

@<TRIPOS>ATOM
      1 C         143.9842  144.6864  163.5529 C.3     1  UNL1        0.0771
      2 N         143.1127  143.8998  164.4865 N.3     1  UNL1       -0.2695
      3 C         143.7297  142.9315  165.4518 C.3     1  UNL1        0.0938
      4 C         142.8582  142.1449  166.3854 C.3     1  UNL1        0.1081
      5 N         141.3696  142.3265  166.3537 N.pl3   1  UNL1       -0.3046
      6 C         140.7525  143.2947  165.3885 C.3     1  UNL1        0.1081
      7 C         141.6240  144.0814  164.4548 C.3     1  UNL1        0.0938
      8 C         140.4980  141.5399  167.2873 C.ar    1  UNL1        0.0484
      9 C         140.4936  141.8551  168.7538 C.ar    1  UNL1        0.0146
     10 C         139.6220  141.0684  169.6874 C.ar    1  UNL1        0.0018
     11 C         138.7549  139.9666  169.1545 C.ar    1  UNL1        0.0066
     12 C         138.7593  139.6514  167.6880 C.ar    1  UNL1        0.0307
     13 S         138.0162  138.6303  166.8786 S.2     1  UNL1       -0.0864
     14 C         138.4285  138.7858  165.4448 C.ar    1  UNL1        0.0355
     15 C         139.4265  139.9031  165.3681 C.ar    1  UNL1        0.0087
     16 C         139.6308  140.4380  166.7544 C.ar    1  UNL1        0.0198
     17 C         144.2662  144.1675  162.1741 C.3     1  UNL1        0.0497
     18 C         141.6308  144.2611  160.7438 C.3     1  UNL1        0.0520
     19 C         142.3044  142.9435  160.9894 C.ar    1  UNL1        0.0614
     20 N         141.6603  141.6729  160.5200 N.ar    1  UNL1       -0.2343
     21 C         142.3339  140.3553  160.7657 C.ar    1  UNL1        0.1491
     22 N         143.6516  140.3085  161.4808 N.ar    1  UNL1       -0.2824
     23 C         144.2957  141.5792  161.9503 C.ar    1  UNL1        0.2589
     24 O         145.6134  141.5324  162.6654 O.2     1  UNL1       -0.2672
     25 C         143.6221  142.8967  161.7046 C.ar    1  UNL1        0.0489
     26 C         144.3252  138.9910  161.7265 C.3     1  UNL1        0.1103
     27 C         143.6811  137.7203  161.2570 C.3     1  UNL1        0.0276
     28 C         142.3634  137.7671  160.5419 C.3     1  UNL1        0.0390
     29 C         141.6898  139.0846  160.2962 C.3     1  UNL1        0.1668
     30 O         140.3721  139.1314  159.5810 O.3     1  UNL1       -0.3770
     31 H         140.1275  140.0551  159.4140 H       1  UNL1        0.2109
@<TRIPOS>BOND
     1    18    19    1
     2    19    20   ar
     3    20    21   ar
     4    21    22   ar
     5    22    23   ar
     6    23    24    2
     7    23    25   ar
     8    25    17    1
     9    17     1    1
    10     1     2    1
    11     2     3    1
    12     3     4    1
    13     4     5    1
    14     5     8    1
    15     8     9   ar
    16     9    10   ar
    17    10    11   ar
    18    11    12   ar
    19    12    13   ar
    20    13    14   ar
    21    14    15   ar
    22    15    16   ar
    23     5     6    1
    24     6     7    1
    25    22    26    1
    26    26    27    1
    27    27    28    1
    28    28    29    1
    29    29    30    1
    30    25    19   ar
    31     7     2    1
    32    29    21    1
    33    16     8   ar
    34    16    12   ar
    35    30    31    1
@<TRIPOS>MOLECULE
*****
 31 35 0 0 0
SMALL
GASTEIGER

@<TRIPOS>ATOM
      1 C         140.8109  137.7017  162.5531 C.3     1  UNL1        0.0771
      2 N         141.0608  138.2424  163.9297 N.3     1  UNL1       -0.2695
      3 C         142.4666  138.4341  164.4165 C.3     1  UNL1        0.0938
      4 C         142.7164  138.9749  165.7931 C.3     1  UNL1        0.1081
      5 N         141.5605  139.3240  166.6830 N.pl3   1  UNL1       -0.3046
      6 C         140.1547  139.1323  166.1963 C.3     1  UNL1        0.1081
      7 C         139.9048  138.5915  164.8196 C.3     1  UNL1        0.0938
      8 C         141.8103  139.8647  168.0596 C.ar    1  UNL1        0.0484
      9 C         142.5821  139.0516  169.0562 C.ar    1  UNL1        0.0146
     10 C         142.8320  139.5924  170.4329 C.ar    1  UNL1        0.0018
     11 C         142.3099  140.9463  170.8129 C.ar    1  UNL1        0.0066
     12 C         141.5381  141.7594  169.8164 C.ar    1  UNL1        0.0307
     13 S         140.9048  143.1164  169.9033 S.2     1  UNL1       -0.0864
     14 C         140.2637  143.4143  168.5804 C.ar    1  UNL1        0.0355
     15 C         140.5006  142.2414  167.6758 C.ar    1  UNL1        0.0087
     16 C         141.2883  141.2186  168.4398 C.ar    1  UNL1        0.0198
     17 C         140.6155  138.6429  161.4017 C.3     1  UNL1        0.0497
     18 C         137.6956  139.3109  161.5698 C.3     1  UNL1        0.0520
     19 C         138.7230  140.3909  161.7380 C.ar    1  UNL1        0.0614
     20 N         138.2904  141.8049  161.9903 N.ar    1  UNL1       -0.2343
     21 C         139.3178  142.8849  162.1584 C.ar    1  UNL1        0.1491
     22 N         140.7777  142.5508  162.0744 N.ar    1  UNL1       -0.2824
     23 C         141.2103  141.1368  161.8221 C.ar    1  UNL1        0.2589
     24 O         142.6702  140.8028  161.7380 O.2     1  UNL1       -0.2672
     25 C         140.1829  140.0569  161.6539 C.ar    1  UNL1        0.0489
     26 C         141.8050  143.6307  162.2425 C.3     1  UNL1        0.1103
     27 C         141.3725  145.0447  162.4947 C.3     1  UNL1        0.0276
     28 C         139.9125  145.3787  162.5788 C.3     1  UNL1        0.0390
     29 C         138.8852  144.2988  162.4107 C.3     1  UNL1        0.1668
     30 O         137.4253  144.6328  162.4948 O.3     1  UNL1       -0.3770
     31 H         136.9044  143.8149  162.4685 H       1  UNL1        0.2109
@<TRIPOS>BOND
     1    18    19    1
     2    19    20   ar
     3    20    21   ar
     4    21    22   ar
     5    22    23   ar
     6    23    24    2
     7    23    25   ar
     8    25    17    1
     9    17     1    1
    10     1     2    1
    11     2     3    1
    12     3     4    1
    13     4     5    1
    14     5     8    1
    15     8     9   ar
    16     9    10   ar
    17    10    11   ar
    18    11    12   ar
    19    12    13   ar
    20    13    14   ar
    21    14    15   ar
    22    15    16   ar
    23     5     6    1
    24     6     7    1
    25    22    26    1
    26    26    27    1
    27    27    28    1
    28    28    29    1
    29    29    30    1
    30    25    19   ar
    31     7     2    1
    32    29    21    1
    33    16     8   ar
    34    16    12   ar
    35    30    31    1
@<TRIPOS>MOLECULE
*****
 31 35 0 0 0
SMALL
GASTEIGER

@<TRIPOS>ATOM
      1 C         144.0909  143.8127  164.7802 C.3     1  UNL1        0.0771
      2 N         143.3571  143.9387  163.4780 N.3     1  UNL1       -0.2695
      3 C         142.0424  144.6589  163.4247 C.3     1  UNL1        0.0938
      4 C         141.3086  144.7849  162.1225 C.3     1  UNL1        0.1081
      5 N         141.8895  144.1908  160.8737 N.pl3   1  UNL1       -0.3046
      6 C         143.2042  143.4706  160.9270 C.3     1  UNL1        0.1081
      7 C         143.9381  143.3446  162.2292 C.3     1  UNL1        0.0938
      8 C         141.1557  144.3168  159.5715 C.ar    1  UNL1        0.0484
      9 C         141.5103  145.4157  158.6141 C.ar    1  UNL1        0.0146
     10 C         140.7765  145.5417  157.3119 C.ar    1  UNL1        0.0018
     11 C         139.6881  144.5688  156.9672 C.ar    1  UNL1        0.0066
     12 C         139.3335  143.4699  157.9246 C.ar    1  UNL1        0.0307
     13 S         138.3144  142.3712  157.8586 S.2     1  UNL1       -0.0864
     14 C         138.4184  141.5662  159.1200 C.ar    1  UNL1        0.0355
     15 C         139.5018  142.1674  159.9656 C.ar    1  UNL1        0.0087
     16 C         140.0673  143.3439  159.2267 C.ar    1  UNL1        0.0198
     17 C         143.9098  142.5884  165.6276 C.3     1  UNL1        0.0497
     18 C         145.2607  140.3807  164.1106 C.3     1  UNL1        0.0520
     19 C         143.7814  140.3277  164.3536 C.ar    1  UNL1        0.0614
     20 N         142.9776  139.1709  163.8381 N.ar    1  UNL1       -0.2343
     21 C         141.4983  139.1180  164.0811 C.ar    1  UNL1        0.1491
     22 N         140.8229  140.2218  164.8396 N.ar    1  UNL1       -0.2824
     23 C         141.6267  141.3786  165.3551 C.ar    1  UNL1        0.2589
     24 O         140.9513  142.4825  166.1137 O.2     1  UNL1       -0.2672
     25 C         143.1059  141.4316  165.1121 C.ar    1  UNL1        0.0489
     26 C         139.3437  140.1689  165.0827 C.3     1  UNL1        0.1103
     27 C         138.5399  139.0121  164.5672 C.3     1  UNL1        0.0276
     28 C         139.2153  137.9083  163.8087 C.3     1  UNL1        0.0390
     29 C         140.6945  137.9612  163.5656 C.3     1  UNL1        0.1668
     30 O         141.3699  136.8574  162.8071 O.3     1  UNL1       -0.3770
     31 H         142.3304  136.9913  162.8282 H       1  UNL1        0.2109
@<TRIPOS>BOND
     1    18    19    1
     2    19    20   ar
     3    20    21   ar
     4    21    22   ar
     5    22    23   ar
     6    23    24    2
     7    23    25   ar
     8    25    17    1
     9    17     1    1
    10     1     2    1
    11     2     3    1
    12     3     4    1
    13     4     5    1
    14     5     8    1
    15     8     9   ar
    16     9    10   ar
    17    10    11   ar
    18    11    12   ar
    19    12    13   ar
    20    13    14   ar
    21    14    15   ar
    22    15    16   ar
    23     5     6    1
    24     6     7    1
    25    22    26    1
    26    26    27    1
    27    27    28    1
    28    28    29    1
    29    29    30    1
    30    25    19   ar
    31     7     2    1
    32    29    21    1
    33    16     8   ar
    34    16    12   ar
    35    30    31    1
@<TRIPOS>MOLECULE
*****
 31 35 0 0 0
SMALL
GASTEIGER

@<TRIPOS>ATOM
      1 C         140.8822  145.4611  162.6984 C.3     1  UNL1        0.0771
      2 N         141.0920  144.5127  163.8414 N.3     1  UNL1       -0.2695
      3 C         139.9325  144.1078  164.7026 C.3     1  UNL1        0.0938
      4 C         140.1423  143.1594  165.8455 C.3     1  UNL1        0.1081
      5 N         141.5116  142.6158  166.1274 N.pl3   1  UNL1       -0.3046
      6 C         142.6711  143.0206  165.2662 C.3     1  UNL1        0.1081
      7 C         142.4614  143.9690  164.1232 C.3     1  UNL1        0.0938
      8 C         141.7214  141.6673  167.2703 C.ar    1  UNL1        0.0484
      9 C         142.4550  140.3777  167.0498 C.ar    1  UNL1        0.0146
     10 C         142.6648  139.4292  168.1928 C.ar    1  UNL1        0.0018
     11 C         142.1410  139.7704  169.5563 C.ar    1  UNL1        0.0066
     12 C         141.4074  141.0601  169.7769 C.ar    1  UNL1        0.0307
     13 S         140.7817  141.6625  170.9998 S.2     1  UNL1       -0.0864
     14 C         140.1853  142.9832  170.6127 C.ar    1  UNL1        0.0355
     15 C         140.4423  143.1971  169.1504 C.ar    1  UNL1        0.0087
     16 C         141.1976  142.0085  168.6339 C.ar    1  UNL1        0.0198
     17 C         140.5481  144.9310  161.3356 C.3     1  UNL1        0.0497
     18 C         142.9608  143.4139  160.3988 C.3     1  UNL1        0.0520
     19 C         141.6677  142.6924  160.6387 C.ar    1  UNL1        0.0614
     20 N         141.5810  141.2125  160.4102 N.ar    1  UNL1       -0.2343
     21 C         140.2879  140.4910  160.6501 C.ar    1  UNL1        0.1491
     22 N         139.0816  141.2496  161.1185 N.ar    1  UNL1       -0.2824
     23 C         139.1683  142.7296  161.3470 C.ar    1  UNL1        0.2589
     24 O         137.9620  143.4881  161.8154 O.2     1  UNL1       -0.2672
     25 C         140.4613  143.4510  161.1071 C.ar    1  UNL1        0.0489
     26 C         137.7885  140.5282  161.3584 C.3     1  UNL1        0.1103
     27 C         137.7018  139.0482  161.1299 C.3     1  UNL1        0.0276
     28 C         138.9082  138.2897  160.6615 C.3     1  UNL1        0.0390
     29 C         140.2012  139.0111  160.4216 C.3     1  UNL1        0.1668
     30 O         141.4075  138.2526  159.9531 O.3     1  UNL1       -0.3770
     31 H         142.1779  138.8420  159.9472 H       1  UNL1        0.2109
@<TRIPOS>BOND
     1    18    19    1
     2    19    20   ar
     3    20    21   ar
     4    21    22   ar
     5    22    23   ar
     6    23    24    2
     7    23    25   ar
     8    25    17    1
     9    17     1    1
    10     1     2    1
    11     2     3    1
    12     3     4    1
    13     4     5    1
    14     5     8    1
    15     8     9   ar
    16     9    10   ar
    17    10    11   ar
    18    11    12   ar
    19    12    13   ar
    20    13    14   ar
    21    14    15   ar
    22    15    16   ar
    23     5     6    1
    24     6     7    1
    25    22    26    1
    26    26    27    1
    27    27    28    1
    28    28    29    1
    29    29    30    1
    30    25    19   ar
    31     7     2    1
    32    29    21    1
    33    16     8   ar
    34    16    12   ar
    35    30    31    1
@<TRIPOS>MOLECULE
*****
 31 35 0 0 0
SMALL
GASTEIGER

@<TRIPOS>ATOM
      1 C         140.6415  137.6839  162.6922 C.3     1  UNL1        0.0771
      2 N         140.9185  138.2532  164.0520 N.3     1  UNL1       -0.2695
      3 C         142.3336  138.4555  164.5065 C.3     1  UNL1        0.0938
      4 C         142.6106  139.0248  165.8663 C.3     1  UNL1        0.1081
      5 N         141.4724  139.3919  166.7717 N.pl3   1  UNL1       -0.3046
      6 C         140.0573  139.1897  166.3173 C.3     1  UNL1        0.1081
      7 C         139.7803  138.6204  164.9574 C.3     1  UNL1        0.0938
      8 C         141.7493  139.9612  168.1315 C.ar    1  UNL1        0.0484
      9 C         142.5187  139.1584  169.1383 C.ar    1  UNL1        0.0146
     10 C         142.7956  139.7278  170.4982 C.ar    1  UNL1        0.0018
     11 C         142.3032  141.1000  170.8512 C.ar    1  UNL1        0.0066
     12 C         141.5338  141.9028  169.8445 C.ar    1  UNL1        0.0307
     13 S         140.9265  143.2730  169.9057 S.2     1  UNL1       -0.0864
     14 C         140.2743  143.5505  168.5838 C.ar    1  UNL1        0.0355
     15 C         140.4785  142.3517  167.7055 C.ar    1  UNL1        0.0087
     16 C         141.2569  141.3335  168.4846 C.ar    1  UNL1        0.0198
     17 C         140.5129  138.5968  161.5090 C.3     1  UNL1        0.0497
     18 C         143.2225  139.8198  161.1064 C.3     1  UNL1        0.0520
     19 C         142.0559  140.6868  161.4771 C.ar    1  UNL1        0.0614
     20 N         142.2441  142.1653  161.6464 N.ar    1  UNL1       -0.2343
     21 C         141.0775  143.0323  162.0172 C.ar    1  UNL1        0.1491
     22 N         139.7226  142.4207  162.2185 N.ar    1  UNL1       -0.2824
     23 C         139.5345  140.9422  162.0491 C.ar    1  UNL1        0.2589
     24 O         138.1797  140.3307  162.2504 O.2     1  UNL1       -0.2672
     25 C         140.7011  140.0753  161.6784 C.ar    1  UNL1        0.0489
     26 C         138.5560  143.2876  162.5891 C.3     1  UNL1        0.1103
     27 C         138.7442  144.7661  162.7585 C.3     1  UNL1        0.0276
     28 C         140.0991  145.3776  162.5572 C.3     1  UNL1        0.0390
     29 C         141.2657  144.5107  162.1865 C.3     1  UNL1        0.1668
     30 O         142.6205  145.1222  161.9852 O.3     1  UNL1       -0.3770
     31 H         143.2332  144.4481  161.6520 H       1  UNL1        0.2109
@<TRIPOS>BOND
     1    18    19    1
     2    19    20   ar
     3    20    21   ar
     4    21    22   ar
     5    22    23   ar
     6    23    24    2
     7    23    25   ar
     8    25    17    1
     9    17     1    1
    10     1     2    1
    11     2     3    1
    12     3     4    1
    13     4     5    1
    14     5     8    1
    15     8     9   ar
    16     9    10   ar
    17    10    11   ar
    18    11    12   ar
    19    12    13   ar
    20    13    14   ar
    21    14    15   ar
    22    15    16   ar
    23     5     6    1
    24     6     7    1
    25    22    26    1
    26    26    27    1
    27    27    28    1
    28    28    29    1
    29    29    30    1
    30    25    19   ar
    31     7     2    1
    32    29    21    1
    33    16     8   ar
    34    16    12   ar
    35    30    31    1
@<TRIPOS>MOLECULE
*****
 31 35 0 0 0
SMALL
GASTEIGER

@<TRIPOS>ATOM
      1 C         145.1008  141.4187  162.4721 C.3     1  UNL1        0.0771
      2 N         144.4865  141.5008  163.8381 N.3     1  UNL1       -0.2695
      3 C         144.2476  142.8383  164.4739 C.3     1  UNL1        0.0938
      4 C         143.6333  142.9204  165.8398 C.3     1  UNL1        0.1081
      5 N         143.2579  141.6650  166.5700 N.pl3   1  UNL1       -0.3046
      6 C         143.4967  140.3276  165.9343 C.3     1  UNL1        0.1081
      7 C         144.1111  140.2455  164.5683 C.3     1  UNL1        0.0938
      8 C         142.6436  141.7471  167.9360 C.ar    1  UNL1        0.0484
      9 C         143.3537  142.4808  169.0348 C.ar    1  UNL1        0.0146
     10 C         142.7393  142.5628  170.4008 C.ar    1  UNL1        0.0018
     11 C         141.4149  141.9113  170.6679 C.ar    1  UNL1        0.0066
     12 C         140.7048  141.1776  169.5691 C.ar    1  UNL1        0.0307
     13 S         139.3978  140.4424  169.5344 S.2     1  UNL1       -0.0864
     14 C         139.2044  139.9059  168.1471 C.ar    1  UNL1        0.0355
     15 C         140.3919  140.3096  167.3243 C.ar    1  UNL1        0.0087
     16 C         141.3191  141.0956  168.2031 C.ar    1  UNL1        0.0198
     17 C         144.2270  141.2372  161.2665 C.3     1  UNL1        0.0497
     18 C         142.4237  143.6334  161.3481 C.3     1  UNL1        0.0520
     19 C         141.8455  142.2550  161.4738 C.ar    1  UNL1        0.0614
     20 N         140.3658  142.0747  161.6404 N.ar    1  UNL1       -0.2343
     21 C         139.7876  140.6963  161.7661 C.ar    1  UNL1        0.1491
     22 N         140.6892  139.4982  161.7253 N.ar    1  UNL1       -0.2824
     23 C         142.1690  139.6785  161.5588 C.ar    1  UNL1        0.2589
     24 O         143.0707  138.4804  161.5180 O.2     1  UNL1       -0.2672
     25 C         142.7472  141.0569  161.4331 C.ar    1  UNL1        0.0489
     26 C         140.1111  138.1198  161.8511 C.3     1  UNL1        0.1103
     27 C         138.6313  137.9396  162.0176 C.3     1  UNL1        0.0276
     28 C         137.7297  139.1377  162.0584 C.3     1  UNL1        0.0390
     29 C         138.3078  140.5160  161.9326 C.3     1  UNL1        0.1668
     30 O         137.4062  141.7141  161.9734 O.3     1  UNL1       -0.3770
     31 H         137.9205  142.5126  161.7765 H       1  UNL1        0.2109
@<TRIPOS>BOND
     1    18    19    1
     2    19    20   ar
     3    20    21   ar
     4    21    22   ar
     5    22    23   ar
     6    23    24    2
     7    23    25   ar
     8    25    17    1
     9    17     1    1
    10     1     2    1
    11     2     3    1
    12     3     4    1
    13     4     5    1
    14     5     8    1
    15     8     9   ar
    16     9    10   ar
    17    10    11   ar
    18    11    12   ar
    19    12    13   ar
    20    13    14   ar
    21    14    15   ar
    22    15    16   ar
    23     5     6    1
    24     6     7    1
    25    22    26    1
    26    26    27    1
    27    27    28    1
    28    28    29    1
    29    29    30    1
    30    25    19   ar
    31     7     2    1
    32    29    21    1
    33    16     8   ar
    34    16    12   ar
    35    30    31    1
@<TRIPOS>MOLECULE
*****
 31 35 0 0 0
SMALL
GASTEIGER

@<TRIPOS>ATOM
      1 C         144.5372  139.5733  164.6003 C.3     1  UNL1        0.0771
      2 N         144.3491  140.1789  163.2410 N.3     1  UNL1       -0.2695
      3 C         144.7285  141.6098  162.9984 C.3     1  UNL1        0.0938
      4 C         144.5405  142.2154  161.6390 C.3     1  UNL1        0.1081
      5 N         143.9730  141.3902  160.5223 N.pl3   1  UNL1       -0.3046
      6 C         143.5937  139.9594  160.7649 C.3     1  UNL1        0.1081
      7 C         143.7817  139.3538  162.1243 C.3     1  UNL1        0.0938
      8 C         143.7850  141.9958  159.1630 C.ar    1  UNL1        0.0484
      9 C         144.5148  141.4285  157.9816 C.ar    1  UNL1        0.0146
     10 C         144.3267  142.0342  156.6222 C.ar    1  UNL1        0.0018
     11 C         143.4088  143.2071  156.4442 C.ar    1  UNL1        0.0066
     12 C         142.6790  143.7744  157.6255 C.ar    1  UNL1        0.0307
     13 S         141.7161  144.9170  157.7564 S.2     1  UNL1       -0.0864
     14 C         141.3091  145.0176  159.1966 C.ar    1  UNL1        0.0355
     15 C         142.0204  143.9371  159.9559 C.ar    1  UNL1        0.0087
     16 C         142.8670  143.1688  158.9849 C.ar    1  UNL1        0.0198
     17 C         143.3637  139.4199  165.5219 C.3     1  UNL1        0.0497
     18 C         141.2002  137.7521  164.2819 C.3     1  UNL1        0.0520
     19 C         140.9641  139.2093  164.5483 C.ar    1  UNL1        0.0614
     20 N         139.6464  139.8325  164.1947 N.ar    1  UNL1       -0.2343
     21 C         139.4103  141.2897  164.4612 C.ar    1  UNL1        0.1491
     22 N         140.4920  142.1236  165.0812 N.ar    1  UNL1       -0.2824
     23 C         141.8098  141.5003  165.4347 C.ar    1  UNL1        0.2589
     24 O         142.8916  142.3343  166.0547 O.2     1  UNL1       -0.2672
     25 C         142.0459  140.0432  165.1683 C.ar    1  UNL1        0.0489
     26 C         140.2560  143.5807  165.3476 C.3     1  UNL1        0.1103
     27 C         138.9382  144.2039  164.9940 C.3     1  UNL1        0.0276
     28 C         137.8565  143.3700  164.3740 C.3     1  UNL1        0.0390
     29 C         138.0925  141.9129  164.1076 C.3     1  UNL1        0.1668
     30 O         137.0108  141.0790  163.4876 O.3     1  UNL1       -0.3770
     31 H         137.2846  140.1485  163.4792 H       1  UNL1        0.2109
@<TRIPOS>BOND
     1    18    19    1
     2    19    20   ar
     3    20    21   ar
     4    21    22   ar
     5    22    23   ar
     6    23    24    2
     7    23    25   ar
     8    25    17    1
     9    17     1    1
    10     1     2    1
    11     2     3    1
    12     3     4    1
    13     4     5    1
    14     5     8    1
    15     8     9   ar
    16     9    10   ar
    17    10    11   ar
    18    11    12   ar
    19    12    13   ar
    20    13    14   ar
    21    14    15   ar
    22    15    16   ar
    23     5     6    1
    24     6     7    1
    25    22    26    1
    26    26    27    1
    27    27    28    1
    28    28    29    1
    29    29    30    1
    30    25    19   ar
    31     7     2    1
    32    29    21    1
    33    16     8   ar
    34    16    12   ar
    35    30    31    1
