@<TRIPOS>MOLECULE
*****
 30 32 0 0 0
SMALL
GASTEIGER

@<TRIPOS>ATOM
      1 C         138.5157  139.2756  161.9099 C.ar    1  UNL1        0.0859
      2 C         138.7606  138.0252  162.7013 C.ar    1  UNL1        0.1060
      3 N         138.7565  138.0736  164.2005 N.ar    1  UNL1       -0.2288
      4 C         138.5074  139.3724  164.9083 C.ar    1  UNL1        0.1354
      5 C         138.2625  140.6228  164.1168 C.ar    1  UNL1        0.0492
      6 C         138.2666  140.5744  162.6176 C.ar    1  UNL1        0.0570
      7 C         139.6821  138.5624  158.1842 C.3     1  UNL1        0.1109
      8 N         139.6779  138.6108  159.6834 N.am    1  UNL1       -0.2991
      9 C         138.5199  139.2272  160.4107 C.2     1  UNL1        0.2486
     10 O         137.3660  139.7951  159.6387 O.2     1  UNL1       -0.2700
     11 H         140.4353  138.2380  160.1900 H       1  UNL1        0.1498
     12 N         138.5032  139.4208  166.4075 N.am    1  UNL1       -0.2693
     13 C         139.6104  140.1208  167.1384 C.2     1  UNL1        0.2267
     14 O         140.7218  140.7723  166.3700 O.2     1  UNL1       -0.2748
     15 H         137.7738  138.9932  166.9118 H       1  UNL1        0.1563
     16 C         139.6062  140.1692  168.6376 C.3     1  UNL1        0.0769
     17 C         140.3267  140.0161  169.9442 C.3     1  UNL1        0.0096
     18 C         138.8784  140.4061  169.9276 C.3     1  UNL1        0.0096
     19 N         138.0217  141.8249  161.8262 N.pl3   1  UNL1       -0.3113
     20 H         137.1047  142.0712  161.5662 H       1  UNL1        0.1523
     21 C         139.1740  142.7001  161.4309 C.ar    1  UNL1        0.0656
     22 C         139.9450  142.4047  160.1786 C.ar    1  UNL1        0.0159
     23 C         141.0974  143.2800  159.7833 C.ar    1  UNL1        0.0014
     24 C         141.4786  144.4505  160.6403 C.ar    1  UNL1        0.0014
     25 C         140.7075  144.7458  161.8926 C.ar    1  UNL1        0.0196
     26 C         139.5553  143.8707  162.2879 C.ar    1  UNL1        0.1190
     27 S         138.7842  144.1660  163.5402 S.O2    1  UNL1        0.0116
     28 C         138.0132  144.4614  164.7925 C.3     1  UNL1        0.1816
     29 O         139.9388  143.6805  164.3656 O.2     1  UNL1       -0.1685
     30 O         137.6297  144.6516  162.7148 O.2     1  UNL1       -0.1685
@<TRIPOS>BOND
     1     7     8    1
     2     8     9   am
     3     9    10    2
     4     9     1    1
     5     1     2   ar
     6     2     3   ar
     7     3     4   ar
     8     4    12    1
     9    12    13   am
    10    13    14    2
    11    13    16    1
    12    16    17    1
    13    17    18    1
    14     4     5   ar
    15     5     6   ar
    16     6    19    1
    17    19    21    1
    18    21    22   ar
    19    22    23   ar
    20    23    24   ar
    21    24    25   ar
    22    25    26   ar
    23    26    27    1
    24    27    28    1
    25    27    29    2
    26    27    30    2
    27     6     1   ar
    28    26    21   ar
    29    18    16    1
    30     8    11    1
    31    12    15    1
    32    19    20    1
@<TRIPOS>MOLECULE
*****
 30 32 0 0 0
SMALL
GASTEIGER

@<TRIPOS>ATOM
      1 C         138.4718  139.0308  162.3344 C.ar    1  UNL1        0.0859
      2 C         138.8805  137.8246  163.1267 C.ar    1  UNL1        0.1060
      3 N         138.8979  137.8823  164.6255 N.ar    1  UNL1       -0.2288
      4 C         138.5067  139.1463  165.3320 C.ar    1  UNL1        0.1354
      5 C         138.0980  140.3526  164.5396 C.ar    1  UNL1        0.0492
      6 C         138.0805  140.2948  163.0408 C.ar    1  UNL1        0.0570
      7 C         139.6001  138.3263  158.5954 C.3     1  UNL1        0.1109
      8 N         139.6176  138.3840  160.0941 N.am    1  UNL1       -0.2991
      9 C         138.4543  138.9731  160.8356 C.2     1  UNL1        0.2486
     10 O         137.2736  139.5043  160.0783 O.2     1  UNL1       -0.2700
     11 H         140.3926  138.0353  160.5912 H       1  UNL1        0.1498
     12 N         138.5241  139.2041  166.8307 N.am    1  UNL1       -0.2693
     13 C         139.5396  140.0526  167.5368 C.2     1  UNL1        0.2267
     14 O         140.5378  140.8435  166.7441 O.2     1  UNL1       -0.2748
     15 H         137.8690  138.6850  167.3510 H       1  UNL1        0.1563
     16 C         139.5571  140.1104  169.0356 C.3     1  UNL1        0.0769
     17 C         138.8284  140.2563  170.3385 C.3     1  UNL1        0.0096
     18 C         140.3160  140.0645  170.3286 C.3     1  UNL1        0.0096
     19 N         137.6718  141.5012  162.2485 N.pl3   1  UNL1       -0.3113
     20 H         136.9458  141.4328  161.5870 H       1  UNL1        0.1523
     21 C         138.3691  142.8116  162.4640 C.ar    1  UNL1        0.0656
     22 C         138.1539  143.5753  163.7370 C.ar    1  UNL1        0.0159
     23 C         138.8512  144.8858  163.9525 C.ar    1  UNL1        0.0014
     24 C         139.7638  145.4325  162.8951 C.ar    1  UNL1        0.0014
     25 C         139.9790  144.6689  161.6221 C.ar    1  UNL1        0.0196
     26 C         139.2817  143.3584  161.4065 C.ar    1  UNL1        0.1190
     27 S         139.4969  142.5948  160.1336 S.O2    1  UNL1        0.0116
     28 C         139.7121  141.8311  158.8606 C.3     1  UNL1        0.1816
     29 O         140.8974  142.2726  160.5636 O.2     1  UNL1       -0.1685
     30 O         138.0965  142.9170  159.7035 O.2     1  UNL1       -0.1685
@<TRIPOS>BOND
     1     7     8    1
     2     8     9   am
     3     9    10    2
     4     9     1    1
     5     1     2   ar
     6     2     3   ar
     7     3     4   ar
     8     4    12    1
     9    12    13   am
    10    13    14    2
    11    13    16    1
    12    16    17    1
    13    17    18    1
    14     4     5   ar
    15     5     6   ar
    16     6    19    1
    17    19    21    1
    18    21    22   ar
    19    22    23   ar
    20    23    24   ar
    21    24    25   ar
    22    25    26   ar
    23    26    27    1
    24    27    28    1
    25    27    29    2
    26    27    30    2
    27     6     1   ar
    28    26    21   ar
    29    18    16    1
    30     8    11    1
    31    12    15    1
    32    19    20    1
@<TRIPOS>MOLECULE
*****
 30 32 0 0 0
SMALL
GASTEIGER

@<TRIPOS>ATOM
      1 C         139.7309  143.1687  161.3019 C.ar    1  UNL1        0.0859
      2 C         138.2763  143.0756  161.6559 C.ar    1  UNL1        0.1060
      3 N         137.7861  141.9555  162.5249 N.ar    1  UNL1       -0.2288
      4 C         138.7505  140.9285  163.0398 C.ar    1  UNL1        0.1354
      5 C         140.2051  141.0217  162.6858 C.ar    1  UNL1        0.0492
      6 C         140.6953  142.1418  161.8169 C.ar    1  UNL1        0.0570
      7 C         140.1867  145.5590  158.1669 C.3     1  UNL1        0.1109
      8 N         139.6965  144.4389  159.0358 N.am    1  UNL1       -0.2991
      9 C         140.2211  144.2889  160.4330 C.2     1  UNL1        0.2486
     10 O         141.2359  145.2589  160.9613 O.2     1  UNL1       -0.2700
     11 H         139.0305  143.8022  158.6891 H       1  UNL1        0.1498
     12 N         138.2603  139.8084  163.9087 N.am    1  UNL1       -0.2693
     13 C         138.4819  139.8573  165.3914 C.2     1  UNL1        0.2267
     14 O         139.1937  141.0263  166.0053 O.2     1  UNL1       -0.2748
     15 H         137.7932  139.0411  163.5058 H       1  UNL1        0.1563
     16 C         137.9917  138.7372  166.2604 C.3     1  UNL1        0.0769
     17 C         137.8374  137.2683  166.5223 C.3     1  UNL1        0.0096
     18 C         137.2969  138.2660  167.5034 C.3     1  UNL1        0.0096
     19 N         142.1501  142.2349  161.4629 N.pl3   1  UNL1       -0.3113
     20 H         142.4300  142.7247  160.6560 H       1  UNL1        0.1523
     21 C         143.1782  141.5818  162.3382 C.ar    1  UNL1        0.0656
     22 C         143.4996  140.1274  162.1608 C.ar    1  UNL1        0.0159
     23 C         144.5278  139.4743  163.0362 C.ar    1  UNL1        0.0014
     24 C         145.2347  140.2755  164.0889 C.ar    1  UNL1        0.0014
     25 C         144.9133  141.7299  164.2664 C.ar    1  UNL1        0.0196
     26 C         143.8851  142.3830  163.3910 C.ar    1  UNL1        0.1190
     27 S         143.5637  143.8374  163.5685 S.O2    1  UNL1        0.0116
     28 C         143.2424  145.2918  163.7459 C.3     1  UNL1        0.1816
     29 O         144.3681  144.1644  162.3453 O.2     1  UNL1       -0.1685
     30 O         142.7594  143.5105  164.7916 O.2     1  UNL1       -0.1685
@<TRIPOS>BOND
     1     7     8    1
     2     8     9   am
     3     9    10    2
     4     9     1    1
     5     1     2   ar
     6     2     3   ar
     7     3     4   ar
     8     4    12    1
     9    12    13   am
    10    13    14    2
    11    13    16    1
    12    16    17    1
    13    17    18    1
    14     4     5   ar
    15     5     6   ar
    16     6    19    1
    17    19    21    1
    18    21    22   ar
    19    22    23   ar
    20    23    24   ar
    21    24    25   ar
    22    25    26   ar
    23    26    27    1
    24    27    28    1
    25    27    29    2
    26    27    30    2
    27     6     1   ar
    28    26    21   ar
    29    18    16    1
    30     8    11    1
    31    12    15    1
    32    19    20    1
@<TRIPOS>MOLECULE
*****
 30 32 0 0 0
SMALL
GASTEIGER

@<TRIPOS>ATOM
      1 C         143.9201  142.0285  161.6908 C.ar    1  UNL1        0.0859
      2 C         145.1552  141.9074  162.5333 C.ar    1  UNL1        0.1060
      3 N         145.0983  142.2265  163.9978 N.ar    1  UNL1       -0.2288
      4 C         143.8064  142.6668  164.6199 C.ar    1  UNL1        0.1354
      5 C         142.5713  142.7880  163.7774 C.ar    1  UNL1        0.0492
      6 C         142.6281  142.4688  162.3128 C.ar    1  UNL1        0.0570
      7 C         144.8856  142.2184  157.8461 C.3     1  UNL1        0.1109
      8 N         144.8287  142.5376  159.3106 N.am    1  UNL1       -0.2991
      9 C         143.9769  141.7093  160.2262 C.2     1  UNL1        0.2486
     10 O         143.1820  140.5619  159.6773 O.2     1  UNL1       -0.2700
     11 H         145.3505  143.2907  159.6709 H       1  UNL1        0.1498
     12 N         143.7495  142.9860  166.0844 N.am    1  UNL1       -0.2693
     13 C         143.1891  141.9836  167.0493 C.2     1  UNL1        0.2267
     14 O         142.6855  140.6619  166.5496 O.2     1  UNL1       -0.2748
     15 H         144.0801  143.8534  166.4124 H       1  UNL1        0.1563
     16 C         143.1322  142.3028  168.5138 C.3     1  UNL1        0.0769
     17 C         142.3788  142.8243  169.7014 C.3     1  UNL1        0.0096
     18 C         143.7872  142.3341  169.8629 C.3     1  UNL1        0.0096
     19 N         141.3930  142.5899  161.4703 N.pl3   1  UNL1       -0.3113
     20 H         141.4635  142.8801  160.5322 H       1  UNL1        0.1523
     21 C         140.0504  142.2690  162.0572 C.ar    1  UNL1        0.0656
     22 C         139.6641  140.8418  162.3099 C.ar    1  UNL1        0.0159
     23 C         138.3214  140.5209  162.8968 C.ar    1  UNL1        0.0014
     24 C         137.3651  141.6272  163.2309 C.ar    1  UNL1        0.0014
     25 C         137.7515  143.0544  162.9782 C.ar    1  UNL1        0.0196
     26 C         139.0941  143.3753  162.3913 C.ar    1  UNL1        0.1190
     27 S         139.4804  144.8025  162.1386 S.O2    1  UNL1        0.0116
     28 C         139.8667  146.2297  161.8859 C.3     1  UNL1        0.1816
     29 O         139.6007  145.0316  163.6161 O.2     1  UNL1       -0.1685
     30 O         139.3600  144.5734  160.6611 O.2     1  UNL1       -0.1685
@<TRIPOS>BOND
     1     7     8    1
     2     8     9   am
     3     9    10    2
     4     9     1    1
     5     1     2   ar
     6     2     3   ar
     7     3     4   ar
     8     4    12    1
     9    12    13   am
    10    13    14    2
    11    13    16    1
    12    16    17    1
    13    17    18    1
    14     4     5   ar
    15     5     6   ar
    16     6    19    1
    17    19    21    1
    18    21    22   ar
    19    22    23   ar
    20    23    24   ar
    21    24    25   ar
    22    25    26   ar
    23    26    27    1
    24    27    28    1
    25    27    29    2
    26    27    30    2
    27     6     1   ar
    28    26    21   ar
    29    18    16    1
    30     8    11    1
    31    12    15    1
    32    19    20    1
@<TRIPOS>MOLECULE
*****
 30 32 0 0 0
SMALL
GASTEIGER

@<TRIPOS>ATOM
      1 C         140.0795  138.7946  162.1240 C.ar    1  UNL1        0.0859
      2 C         139.1059  137.9248  162.8625 C.ar    1  UNL1        0.1060
      3 N         138.6873  138.2842  164.2574 N.ar    1  UNL1       -0.2288
      4 C         139.2422  139.5135  164.9137 C.ar    1  UNL1        0.1354
      5 C         140.2158  140.3834  164.1752 C.ar    1  UNL1        0.0492
      6 C         140.6344  140.0239  162.7804 C.ar    1  UNL1        0.0570
      7 C         139.9201  138.1301  158.2147 C.3     1  UNL1        0.1109
      8 N         139.5015  138.4896  159.6095 N.am    1  UNL1       -0.2991
      9 C         140.4981  138.4352  160.7292 C.2     1  UNL1        0.2486
     10 O         141.9134  138.0215  160.4540 O.2     1  UNL1       -0.2700
     11 H         138.5726  138.7611  159.7901 H       1  UNL1        0.1498
     12 N         138.8236  139.8729  166.3085 N.am    1  UNL1       -0.2693
     13 C         139.8433  139.9268  167.4072 C.2     1  UNL1        0.2267
     14 O         141.2818  139.6213  167.1111 O.2     1  UNL1       -0.2748
     15 H         137.8795  140.0734  166.5029 H       1  UNL1        0.1563
     16 C         139.4247  140.2862  168.8021 C.3     1  UNL1        0.0769
     17 C         139.6161  141.1018  170.0463 C.3     1  UNL1        0.0096
     18 C         138.5083  140.0931  169.9737 C.3     1  UNL1        0.0096
     19 N         141.6080  140.8939  162.0419 N.pl3   1  UNL1       -0.3113
     20 H         141.3771  141.2456  161.1518 H       1  UNL1        0.1523
     21 C         142.9335  141.2280  162.6595 C.ar    1  UNL1        0.0656
     22 C         143.8508  140.1288  163.1069 C.ar    1  UNL1        0.0159
     23 C         145.1763  140.4630  163.7246 C.ar    1  UNL1        0.0014
     24 C         145.5844  141.8963  163.8947 C.ar    1  UNL1        0.0014
     25 C         144.6671  142.9955  163.4473 C.ar    1  UNL1        0.0196
     26 C         143.3416  142.6614  162.8296 C.ar    1  UNL1        0.1190
     27 S         142.4243  143.7606  162.3822 S.O2    1  UNL1        0.0116
     28 C         141.5069  144.8598  161.9347 C.3     1  UNL1        0.1816
     29 O         143.2774  143.9782  161.1678 O.2     1  UNL1       -0.1685
     30 O         141.5712  143.5430  163.5966 O.2     1  UNL1       -0.1685
@<TRIPOS>BOND
     1     7     8    1
     2     8     9   am
     3     9    10    2
     4     9     1    1
     5     1     2   ar
     6     2     3   ar
     7     3     4   ar
     8     4    12    1
     9    12    13   am
    10    13    14    2
    11    13    16    1
    12    16    17    1
    13    17    18    1
    14     4     5   ar
    15     5     6   ar
    16     6    19    1
    17    19    21    1
    18    21    22   ar
    19    22    23   ar
    20    23    24   ar
    21    24    25   ar
    22    25    26   ar
    23    26    27    1
    24    27    28    1
    25    27    29    2
    26    27    30    2
    27     6     1   ar
    28    26    21   ar
    29    18    16    1
    30     8    11    1
    31    12    15    1
    32    19    20    1
@<TRIPOS>MOLECULE
*****
 30 32 0 0 0
SMALL
GASTEIGER

@<TRIPOS>ATOM
      1 C         138.5942  138.9066  165.4948 C.ar    1  UNL1        0.0859
      2 C         138.9097  137.5480  164.9431 C.ar    1  UNL1        0.1060
      3 N         139.0476  137.3533  163.4622 N.ar    1  UNL1       -0.2288
      4 C         138.8700  138.5173  162.5329 C.ar    1  UNL1        0.1354
      5 C         138.5544  139.8760  163.0846 C.ar    1  UNL1        0.0492
      6 C         138.4165  140.0706  164.5655 C.ar    1  UNL1        0.0570
      7 C         139.2872  140.1746  169.1910 C.3     1  UNL1        0.1109
      8 N         139.4251  139.9799  167.7101 N.am    1  UNL1       -0.2991
      9 C         138.4562  139.1013  166.9757 C.2     1  UNL1        0.2486
     10 O         137.3495  138.4174  167.7222 O.2     1  UNL1       -0.2700
     11 H         140.1515  140.4288  167.2201 H       1  UNL1        0.1498
     12 N         139.0079  138.3226  161.0520 N.am    1  UNL1       -0.2693
     13 C         140.3051  138.6441  160.3709 C.2     1  UNL1        0.2267
     14 O         141.4644  139.1603  161.1707 O.2     1  UNL1       -0.2748
     15 H         138.2470  137.9839  160.5271 H       1  UNL1        0.1563
     16 C         140.4430  138.4494  158.8900 C.3     1  UNL1        0.0769
     17 C         141.2988  138.4135  157.6587 C.3     1  UNL1        0.0096
     18 C         139.8260  138.1482  157.5564 C.3     1  UNL1        0.0096
     19 N         138.1009  141.4294  165.1172 N.pl3   1  UNL1       -0.3113
     20 H         137.5965  141.5141  165.9584 H       1  UNL1        0.1523
     21 C         138.5538  142.6590  164.3871 C.ar    1  UNL1        0.0656
     22 C         137.5886  143.4176  163.5252 C.ar    1  UNL1        0.0159
     23 C         138.0415  144.6473  162.7952 C.ar    1  UNL1        0.0014
     24 C         139.4596  145.1182  162.9270 C.ar    1  UNL1        0.0014
     25 C         140.4247  144.3595  163.7889 C.ar    1  UNL1        0.0196
     26 C         139.9719  143.1299  164.5190 C.ar    1  UNL1        0.1190
     27 S         140.9370  142.3712  165.3809 S.O2    1  UNL1        0.0116
     28 C         141.9022  141.6126  166.2428 C.3     1  UNL1        0.1816
     29 O         141.6667  141.9071  164.1552 O.2     1  UNL1       -0.1685
     30 O         140.2074  142.8354  166.6065 O.2     1  UNL1       -0.1685
@<TRIPOS>BOND
     1     7     8    1
     2     8     9   am
     3     9    10    2
     4     9     1    1
     5     1     2   ar
     6     2     3   ar
     7     3     4   ar
     8     4    12    1
     9    12    13   am
    10    13    14    2
    11    13    16    1
    12    16    17    1
    13    17    18    1
    14     4     5   ar
    15     5     6   ar
    16     6    19    1
    17    19    21    1
    18    21    22   ar
    19    22    23   ar
    20    23    24   ar
    21    24    25   ar
    22    25    26   ar
    23    26    27    1
    24    27    28    1
    25    27    29    2
    26    27    30    2
    27     6     1   ar
    28    26    21   ar
    29    18    16    1
    30     8    11    1
    31    12    15    1
    32    19    20    1
@<TRIPOS>MOLECULE
*****
 30 32 0 0 0
SMALL
GASTEIGER

@<TRIPOS>ATOM
      1 C         141.5702  144.0091  162.1181 C.ar    1  UNL1        0.0859
      2 C         142.2094  145.0008  163.0443 C.ar    1  UNL1        0.1060
      3 N         142.7785  144.5444  164.3549 N.ar    1  UNL1       -0.2288
      4 C         142.7084  143.0962  164.7394 C.ar    1  UNL1        0.1354
      5 C         142.0693  142.1045  163.8133 C.ar    1  UNL1        0.0492
      6 C         141.5002  142.5609  162.5026 C.ar    1  UNL1        0.0570
      7 C         141.2961  145.6661  158.5224 C.3     1  UNL1        0.1109
      8 N         141.8652  145.2097  159.8331 N.am    1  UNL1       -0.2991
      9 C         141.0011  144.4655  160.8075 C.2     1  UNL1        0.2486
     10 O         139.5679  144.1777  160.4712 O.2     1  UNL1       -0.2700
     11 H         142.8059  145.3986  160.0538 H       1  UNL1        0.1498
     12 N         143.2775  142.6398  166.0501 N.am    1  UNL1       -0.2693
     13 C         142.3763  142.4518  167.2343 C.2     1  UNL1        0.2267
     14 O         140.9059  142.7201  167.1078 O.2     1  UNL1       -0.2748
     15 H         144.2426  142.4637  166.1331 H       1  UNL1        0.1563
     16 C         142.9454  141.9953  168.5449 C.3     1  UNL1        0.0769
     17 C         143.8059  142.2504  169.7468 C.3     1  UNL1        0.0096
     18 C         143.0706  140.9498  169.6131 C.3     1  UNL1        0.0096
     19 N         140.8609  141.5691  161.5764 N.pl3   1  UNL1       -0.3113
     20 H         140.7801  141.7729  160.6167 H       1  UNL1        0.1523
     21 C         140.3449  140.2667  162.1126 C.ar    1  UNL1        0.0656
     22 C         141.1400  139.0092  161.9216 C.ar    1  UNL1        0.0159
     23 C         140.6239  137.7068  162.4578 C.ar    1  UNL1        0.0014
     24 C         139.3127  137.6619  163.1849 C.ar    1  UNL1        0.0014
     25 C         138.5176  138.9194  163.3759 C.ar    1  UNL1        0.0196
     26 C         139.0336  140.2218  162.8397 C.ar    1  UNL1        0.1190
     27 S         138.2385  141.4793  163.0307 S.O2    1  UNL1        0.0116
     28 C         137.4434  142.7368  163.2216 C.3     1  UNL1        0.1816
     29 O         138.6096  141.4932  164.4840 O.2     1  UNL1       -0.1685
     30 O         137.8674  141.4653  161.5774 O.2     1  UNL1       -0.1685
@<TRIPOS>BOND
     1     7     8    1
     2     8     9   am
     3     9    10    2
     4     9     1    1
     5     1     2   ar
     6     2     3   ar
     7     3     4   ar
     8     4    12    1
     9    12    13   am
    10    13    14    2
    11    13    16    1
    12    16    17    1
    13    17    18    1
    14     4     5   ar
    15     5     6   ar
    16     6    19    1
    17    19    21    1
    18    21    22   ar
    19    22    23   ar
    20    23    24   ar
    21    24    25   ar
    22    25    26   ar
    23    26    27    1
    24    27    28    1
    25    27    29    2
    26    27    30    2
    27     6     1   ar
    28    26    21   ar
    29    18    16    1
    30     8    11    1
    31    12    15    1
    32    19    20    1
@<TRIPOS>MOLECULE
*****
 30 32 0 0 0
SMALL
GASTEIGER

@<TRIPOS>ATOM
      1 C         142.6159  143.4747  161.9790 C.ar    1  UNL1        0.0859
      2 C         143.3049  144.5023  162.8271 C.ar    1  UNL1        0.1060
      3 N         143.6746  144.1794  164.2445 N.ar    1  UNL1       -0.2288
      4 C         143.3553  142.8290  164.8139 C.ar    1  UNL1        0.1354
      5 C         142.6663  141.8013  163.9658 C.ar    1  UNL1        0.0492
      6 C         142.2966  142.1242  162.5484 C.ar    1  UNL1        0.0570
      7 C         141.3850  145.4929  158.7913 C.3     1  UNL1        0.1109
      8 N         141.7547  145.1701  160.2087 N.am    1  UNL1       -0.2991
      9 C         142.2462  143.7975  160.5616 C.2     1  UNL1        0.2486
     10 O         142.3679  142.7478  159.4971 O.2     1  UNL1       -0.2700
     11 H         141.6748  145.8591  160.9074 H       1  UNL1        0.1498
     12 N         143.7250  142.5061  166.2313 N.am    1  UNL1       -0.2693
     13 C         142.6530  142.3453  167.2680 C.2     1  UNL1        0.2267
     14 O         141.2111  142.5074  166.8873 O.2     1  UNL1       -0.2748
     15 H         144.6713  142.3997  166.4811 H       1  UNL1        0.1563
     16 C         143.0227  142.0225  168.6854 C.3     1  UNL1        0.0769
     17 C         142.9788  141.0894  169.8590 C.3     1  UNL1        0.0096
     18 C         143.7070  142.3964  169.9668 C.3     1  UNL1        0.0096
     19 N         141.6076  141.0965  161.7003 N.pl3   1  UNL1       -0.3113
     20 H         141.7475  141.0883  160.7259 H       1  UNL1        0.1523
     21 C         140.7054  140.0813  162.3370 C.ar    1  UNL1        0.0656
     22 C         139.3716  140.4996  162.8811 C.ar    1  UNL1        0.0159
     23 C         138.4694  139.4843  163.5178 C.ar    1  UNL1        0.0014
     24 C         138.9010  138.0508  163.6104 C.ar    1  UNL1        0.0014
     25 C         140.2348  137.6325  163.0663 C.ar    1  UNL1        0.0196
     26 C         141.1370  138.6477  162.4296 C.ar    1  UNL1        0.1190
     27 S         142.4707  138.2293  161.8855 S.O2    1  UNL1        0.0116
     28 C         143.8045  137.8110  161.3414 C.3     1  UNL1        0.1816
     29 O         141.8575  138.0366  160.5303 O.2     1  UNL1       -0.1685
     30 O         143.0840  138.4220  163.2408 O.2     1  UNL1       -0.1685
@<TRIPOS>BOND
     1     7     8    1
     2     8     9   am
     3     9    10    2
     4     9     1    1
     5     1     2   ar
     6     2     3   ar
     7     3     4   ar
     8     4    12    1
     9    12    13   am
    10    13    14    2
    11    13    16    1
    12    16    17    1
    13    17    18    1
    14     4     5   ar
    15     5     6   ar
    16     6    19    1
    17    19    21    1
    18    21    22   ar
    19    22    23   ar
    20    23    24   ar
    21    24    25   ar
    22    25    26   ar
    23    26    27    1
    24    27    28    1
    25    27    29    2
    26    27    30    2
    27     6     1   ar
    28    26    21   ar
    29    18    16    1
    30     8    11    1
    31    12    15    1
    32    19    20    1
@<TRIPOS>MOLECULE
*****
 30 32 0 0 0
SMALL
GASTEIGER

@<TRIPOS>ATOM
      1 C         141.3193  139.2702  165.1903 C.ar    1  UNL1        0.0859
      2 C         141.6513  137.8886  164.7100 C.ar    1  UNL1        0.1060
      3 N         141.6762  137.5913  163.2400 N.ar    1  UNL1       -0.2288
      4 C         141.3690  138.6756  162.2502 C.ar    1  UNL1        0.1354
      5 C         141.0370  140.0573  162.7304 C.ar    1  UNL1        0.0492
      6 C         141.0122  140.3546  164.2005 C.ar    1  UNL1        0.0570
      7 C         142.5008  139.6506  168.9598 C.3     1  UNL1        0.1109
      8 N         142.5257  139.3533  167.4898 N.am    1  UNL1       -0.2991
      9 C         141.2945  139.5676  166.6603 C.2     1  UNL1        0.2486
     10 O         140.0383  140.0791  167.3009 O.2     1  UNL1       -0.2700
     11 H         143.3502  139.0175  167.0693 H       1  UNL1        0.1498
     12 N         141.3939  138.3783  160.7802 N.am    1  UNL1       -0.2693
     13 C         142.7024  138.3166  160.0495 C.2     1  UNL1        0.2267
     14 O         143.9862  138.5522  160.7889 O.2     1  UNL1       -0.2748
     15 H         140.5514  138.2237  160.2949 H       1  UNL1        0.1563
     16 C         142.7273  138.0193  158.5795 C.3     1  UNL1        0.0769
     17 C         142.6450  137.0334  157.4520 C.3     1  UNL1        0.0096
     18 C         142.8526  138.4902  157.1609 C.3     1  UNL1        0.0096
     19 N         140.6801  141.7364  164.6807 N.pl3   1  UNL1       -0.3113
     20 H         139.8209  141.9084  165.1293 H       1  UNL1        0.1523
     21 C         141.6573  142.8561  164.4773 C.ar    1  UNL1        0.0656
     22 C         143.0859  142.6916  164.9041 C.ar    1  UNL1        0.0159
     23 C         144.0631  143.8114  164.7008 C.ar    1  UNL1        0.0014
     24 C         143.6117  145.0955  164.0706 C.ar    1  UNL1        0.0014
     25 C         142.1831  145.2600  163.6438 C.ar    1  UNL1        0.0196
     26 C         141.2060  144.1403  163.8471 C.ar    1  UNL1        0.1190
     27 S         139.7774  144.3048  163.4203 S.O2    1  UNL1        0.0116
     28 C         138.3488  144.4693  162.9935 C.3     1  UNL1        0.1816
     29 O         139.4510  144.9189  164.7493 O.2     1  UNL1       -0.1685
     30 O         140.1038  143.6907  162.0913 O.2     1  UNL1       -0.1685
@<TRIPOS>BOND
     1     7     8    1
     2     8     9   am
     3     9    10    2
     4     9     1    1
     5     1     2   ar
     6     2     3   ar
     7     3     4   ar
     8     4    12    1
     9    12    13   am
    10    13    14    2
    11    13    16    1
    12    16    17    1
    13    17    18    1
    14     4     5   ar
    15     5     6   ar
    16     6    19    1
    17    19    21    1
    18    21    22   ar
    19    22    23   ar
    20    23    24   ar
    21    24    25   ar
    22    25    26   ar
    23    26    27    1
    24    27    28    1
    25    27    29    2
    26    27    30    2
    27     6     1   ar
    28    26    21   ar
    29    18    16    1
    30     8    11    1
    31    12    15    1
    32    19    20    1
