@<TRIPOS>MOLECULE
*****
 34 38 0 0 0
SMALL
GASTEIGER

@<TRIPOS>ATOM
      1 C         143.1786  138.4660  159.5966 C.ar    1  UNL1        0.1233
      2 C         142.4895  137.4092  158.7851 C.ar    1  UNL1        0.1180
      3 N         142.7868  137.6687  157.3380 N.ar    1  UNL1       -0.2233
      4 N         143.6595  138.8858  157.2550 N.ar    1  UNL1       -0.0634
      5 N         143.9017  139.3786  158.6510 N.ar    1  UNL1       -0.1287
      6 C         142.2973  136.8541  156.1774 C.3     1  UNL1        0.1825
      7 C         142.8676  135.4712  156.0664 C.3     1  UNL1        0.0339
      8 C         142.5837  134.4227  155.0319 C.3     1  UNL1        0.0041
      9 C         141.6594  134.4983  153.8530 C.3     1  UNL1        0.0213
     10 C         140.7907  135.6408  153.4173 C.3     1  UNL1        0.0894
     11 N         140.6318  136.9901  154.0530 N.am    1  UNL1       -0.3028
     12 C         141.3023  137.5300  155.2814 C.2     1  UNL1        0.2449
     13 O         140.9283  138.9313  155.6644 O.2     1  UNL1       -0.2730
     14 H         140.0044  137.6023  153.6048 H       1  UNL1        0.1495
     15 C         143.3217  133.1275  155.1984 C.3     1  UNL1        0.0001
     16 C         143.1068  132.0107  154.2204 C.3     1  UNL1        0.0000
     17 C         143.8447  130.7154  154.3869 C.3     1  UNL1        0.0000
     18 C         144.7978  130.5370  155.5315 C.3     1  UNL1        0.0000
     19 C         145.0128  131.6538  156.5095 C.3     1  UNL1        0.0000
     20 C         144.2747  132.9491  156.3430 C.3     1  UNL1        0.0000
     21 C         144.2121  139.4526  163.2991 C.ar    1  UNL1        0.1547
     22 C         144.2412  139.3301  161.8044 C.ar    1  UNL1        0.0400
     23 C         143.1496  138.5886  161.0913 C.ar    1  UNL1        0.0241
     24 C         142.0289  137.9696  161.8729 C.ar    1  UNL1        0.0033
     25 C         141.9998  138.0921  163.3676 C.ar    1  UNL1        0.0207
     26 C         143.0915  138.8336  164.0807 C.ar    1  UNL1        0.0994
     27 N         143.0623  138.9561  165.5754 N.ar    1  UNL1       -0.2839
     28 C         143.6948  138.0078  166.5503 C.ar    1  UNL1        0.1826
     29 N         143.4189  138.5141  167.9351 N.ar    1  UNL1       -0.2280
     30 C         142.6160  139.7754  167.8160 C.ar    1  UNL1        0.0786
     31 C         142.1203  140.6160  168.9552 C.3     1  UNL1        0.0538
     32 C         142.3955  140.0487  166.3577 C.ar    1  UNL1        0.0963
     33 C         145.6620  141.5886  163.5914 C.3     1  UNL1        0.2525
     34 O         145.3038  140.1941  164.0123 O.3     1  UNL1       -0.4700
@<TRIPOS>BOND
     1    33    34    1
     2    34    21    1
     3    21    22   ar
     4    22    23   ar
     5    23     1    1
     6     1     2   ar
     7     2     3   ar
     8     3     6    1
     9     6     7    1
    10     7     8    1
    11     8    15    1
    12    15    16    1
    13    16    17    1
    14    17    18    1
    15    18    19    1
    16    19    20    1
    17     8     9    1
    18     9    10    1
    19    10    11    1
    20    11    12   am
    21    12    13    2
    22     3     4   ar
    23     4     5   ar
    24    23    24   ar
    25    24    25   ar
    26    25    26   ar
    27    26    27    1
    28    27    28   ar
    29    28    29   ar
    30    29    30   ar
    31    30    31    1
    32    30    32   ar
    33    26    21   ar
    34    32    27   ar
    35     5     1   ar
    36    12     6    1
    37    20    15    1
    38    11    14    1
@<TRIPOS>MOLECULE
*****
 34 38 0 0 0
SMALL
GASTEIGER

@<TRIPOS>ATOM
      1 C         142.7352  138.9614  161.0982 C.ar    1  UNL1        0.1233
      2 C         142.0276  138.0499  160.1397 C.ar    1  UNL1        0.1180
      3 N         142.6896  138.1819  158.8002 N.ar    1  UNL1       -0.2233
      4 N         143.8062  139.1748  158.9307 N.ar    1  UNL1       -0.0634
      5 N         143.8344  139.6566  160.3510 N.ar    1  UNL1       -0.1287
      6 C         142.3029  137.4495  157.5495 C.3     1  UNL1        0.1825
      7 C         142.9032  136.0850  157.3825 C.3     1  UNL1        0.0339
      8 C         142.7159  135.1124  156.2559 C.3     1  UNL1        0.0041
      9 C         141.8821  135.2641  155.0184 C.3     1  UNL1        0.0213
     10 C         141.0296  136.4257  154.6015 C.3     1  UNL1        0.0894
     11 N         140.8004  137.7227  155.3194 N.am    1  UNL1       -0.3028
     12 C         141.3671  138.1782  156.6314 C.2     1  UNL1        0.2449
     13 O         140.9416  139.5432  157.0853 O.2     1  UNL1       -0.2730
     14 H         140.1984  138.3591  154.8701 H       1  UNL1        0.1495
     15 C         143.4610  133.8169  156.3840 C.3     1  UNL1        0.0001
     16 C         143.4353  132.8227  155.2611 C.3     1  UNL1        0.0000
     17 C         144.1804  131.5271  155.3891 C.3     1  UNL1        0.0000
     18 C         144.9513  131.2258  156.6401 C.3     1  UNL1        0.0000
     19 C         144.9770  132.2199  157.7631 C.3     1  UNL1        0.0000
     20 C         144.2318  133.5155  157.6350 C.3     1  UNL1        0.0000
     21 C         142.1144  140.6974  164.6126 C.ar    1  UNL1        0.1547
     22 C         142.4477  140.5136  163.1616 C.ar    1  UNL1        0.0400
     23 C         142.4019  139.1452  162.5491 C.ar    1  UNL1        0.0241
     24 C         142.0228  137.9605  163.3875 C.ar    1  UNL1        0.0033
     25 C         141.6895  138.1443  164.8383 C.ar    1  UNL1        0.0207
     26 C         141.7353  139.5128  165.4509 C.ar    1  UNL1        0.0994
     27 N         141.4020  139.6965  166.9018 N.ar    1  UNL1       -0.2839
     28 C         142.3572  139.5595  168.0502 C.ar    1  UNL1        0.1826
     29 N         141.6005  139.8278  169.3172 N.ar    1  UNL1       -0.2280
     30 C         140.1776  140.1306  168.9519 C.ar    1  UNL1        0.0786
     31 C         139.0714  140.4573  169.9110 C.3     1  UNL1        0.0538
     32 C         140.0548  140.0495  167.4591 C.ar    1  UNL1        0.0963
     33 C         143.4214  142.5559  165.8726 C.3     1  UNL1        0.2525
     34 O         142.1602  142.0659  165.2252 O.3     1  UNL1       -0.4700
@<TRIPOS>BOND
     1    33    34    1
     2    34    21    1
     3    21    22   ar
     4    22    23   ar
     5    23     1    1
     6     1     2   ar
     7     2     3   ar
     8     3     6    1
     9     6     7    1
    10     7     8    1
    11     8    15    1
    12    15    16    1
    13    16    17    1
    14    17    18    1
    15    18    19    1
    16    19    20    1
    17     8     9    1
    18     9    10    1
    19    10    11    1
    20    11    12   am
    21    12    13    2
    22     3     4   ar
    23     4     5   ar
    24    23    24   ar
    25    24    25   ar
    26    25    26   ar
    27    26    27    1
    28    27    28   ar
    29    28    29   ar
    30    29    30   ar
    31    30    31    1
    32    30    32   ar
    33    26    21   ar
    34    32    27   ar
    35     5     1   ar
    36    12     6    1
    37    20    15    1
    38    11    14    1
@<TRIPOS>MOLECULE
*****
 34 38 0 0 0
SMALL
GASTEIGER

@<TRIPOS>ATOM
      1 C         143.1860  139.0739  160.4413 C.ar    1  UNL1        0.1233
      2 C         142.4164  138.0165  159.7066 C.ar    1  UNL1        0.1180
      3 N         142.7902  138.0951  158.2560 N.ar    1  UNL1       -0.2233
      4 N         143.7906  139.2009  158.0943 N.ar    1  UNL1       -0.0634
      5 N         144.0353  139.8058  159.4450 N.ar    1  UNL1       -0.1287
      6 C         142.2570  137.2213  157.1595 C.3     1  UNL1        0.1825
      7 C         142.8901  135.8665  157.0412 C.3     1  UNL1        0.0339
      8 C         142.5838  134.7735  156.0604 C.3     1  UNL1        0.0041
      9 C         141.5690  134.7655  154.9560 C.3     1  UNL1        0.0213
     10 C         140.6097  135.8482  154.5593 C.3     1  UNL1        0.0894
     11 N         140.4283  137.2066  155.1692 N.am    1  UNL1       -0.3028
     12 C         141.1615  137.8176  156.3265 C.2     1  UNL1        0.2449
     13 O         140.7439  139.2090  156.7000 O.2     1  UNL1       -0.2730
     14 H         139.7367  137.7718  154.7553 H       1  UNL1        0.1495
     15 C         143.4005  133.5234  156.2032 C.3     1  UNL1        0.0001
     16 C         144.2233  133.3021  157.4377 C.3     1  UNL1        0.0000
     17 C         145.0400  132.0521  157.5806 C.3     1  UNL1        0.0000
     18 C         145.0339  131.0233  156.4888 C.3     1  UNL1        0.0000
     19 C         144.2111  131.2447  155.2544 C.3     1  UNL1        0.0000
     20 C         143.3943  132.4948  155.1115 C.3     1  UNL1        0.0000
     21 C         141.7553  139.4535  164.1237 C.ar    1  UNL1        0.1547
     22 C         141.8231  139.1768  162.6509 C.ar    1  UNL1        0.0400
     23 C         143.1181  139.3505  161.9141 C.ar    1  UNL1        0.0241
     24 C         144.3452  139.8009  162.6499 C.ar    1  UNL1        0.0033
     25 C         144.2773  140.0776  164.1226 C.ar    1  UNL1        0.0207
     26 C         142.9823  139.9039  164.8595 C.ar    1  UNL1        0.0994
     27 N         142.9145  140.1806  166.3322 N.ar    1  UNL1       -0.2839
     28 C         142.9295  139.1523  167.4241 C.ar    1  UNL1        0.1826
     29 N         142.8441  139.8704  168.7383 N.ar    1  UNL1       -0.2280
     30 C         142.7763  141.3425  168.4585 C.ar    1  UNL1        0.0786
     31 C         142.6816  142.4317  169.4855 C.3     1  UNL1        0.0538
     32 C         142.8198  141.5343  166.9715 C.ar    1  UNL1        0.0963
     33 C         139.6821  138.0052  164.7191 C.3     1  UNL1        0.2525
     34 O         140.4604  139.2797  164.8606 O.3     1  UNL1       -0.4700
@<TRIPOS>BOND
     1    33    34    1
     2    34    21    1
     3    21    22   ar
     4    22    23   ar
     5    23     1    1
     6     1     2   ar
     7     2     3   ar
     8     3     6    1
     9     6     7    1
    10     7     8    1
    11     8    15    1
    12    15    16    1
    13    16    17    1
    14    17    18    1
    15    18    19    1
    16    19    20    1
    17     8     9    1
    18     9    10    1
    19    10    11    1
    20    11    12   am
    21    12    13    2
    22     3     4   ar
    23     4     5   ar
    24    23    24   ar
    25    24    25   ar
    26    25    26   ar
    27    26    27    1
    28    27    28   ar
    29    28    29   ar
    30    29    30   ar
    31    30    31    1
    32    30    32   ar
    33    26    21   ar
    34    32    27   ar
    35     5     1   ar
    36    12     6    1
    37    20    15    1
    38    11    14    1
@<TRIPOS>MOLECULE
*****
 34 38 0 0 0
SMALL
GASTEIGER

@<TRIPOS>ATOM
      1 C         139.4317  143.9417  161.5313 C.ar    1  UNL1        0.1233
      2 C         139.6853  142.6888  162.3162 C.ar    1  UNL1        0.1180
      3 N         138.9964  142.8248  163.6416 N.ar    1  UNL1       -0.2233
      4 N         138.3170  144.1616  163.6760 N.ar    1  UNL1       -0.0634
      5 N         138.5861  144.8520  162.3716 N.ar    1  UNL1       -0.1287
      6 C         138.9882  141.8033  164.7400 C.3     1  UNL1        0.1825
      7 C         139.8412  142.1225  165.9319 C.3     1  UNL1        0.0339
      8 C         140.0448  141.3148  167.1795 C.3     1  UNL1        0.0041
      9 C         139.4457  139.9887  167.5432 C.3     1  UNL1        0.0213
     10 C         138.4950  139.1426  166.7494 C.3     1  UNL1        0.0894
     11 N         137.9086  139.4136  165.3956 N.am    1  UNL1       -0.3028
     12 C         138.1282  140.5978  164.5014 C.2     1  UNL1        0.2449
     13 O         137.3899  140.5732  163.1959 O.2     1  UNL1       -0.2730
     14 H         137.2991  138.7231  165.0480 H       1  UNL1        0.1495
     15 C         140.9699  141.9125  168.1978 C.3     1  UNL1        0.0001
     16 C         140.4738  142.9816  169.1256 C.3     1  UNL1        0.0000
     17 C         141.3988  143.5794  170.1440 C.3     1  UNL1        0.0000
     18 C         142.8199  143.1079  170.2346 C.3     1  UNL1        0.0000
     19 C         143.3160  142.0387  169.3068 C.3     1  UNL1        0.0000
     20 C         142.3910  141.4410  168.2884 C.3     1  UNL1        0.0000
     21 C         139.9171  143.7426  157.5975 C.ar    1  UNL1        0.1547
     22 C         139.4133  143.4511  158.9800 C.ar    1  UNL1        0.0400
     23 C         139.9354  144.2331  160.1487 C.ar    1  UNL1        0.0241
     24 C         140.9613  145.3064  159.9350 C.ar    1  UNL1        0.0033
     25 C         141.4650  145.5978  158.5525 C.ar    1  UNL1        0.0207
     26 C         140.9429  144.8159  157.3837 C.ar    1  UNL1        0.0994
     27 N         141.4467  145.1073  156.0012 N.ar    1  UNL1       -0.2839
     28 C         140.7772  145.9848  154.9856 C.ar    1  UNL1        0.1826
     29 N         141.6252  145.9922  153.7483 N.ar    1  UNL1       -0.2280
     30 C         142.8188  145.1192  153.9993 C.ar    1  UNL1        0.0786
     31 C         143.9280  144.8418  153.0284 C.3     1  UNL1        0.0538
     32 C         142.7086  144.5722  155.3917 C.ar    1  UNL1        0.0963
     33 C         138.1276  143.3855  155.7481 C.3     1  UNL1        0.2525
     34 O         139.3950  142.9607  156.4287 O.3     1  UNL1       -0.4700
@<TRIPOS>BOND
     1    33    34    1
     2    34    21    1
     3    21    22   ar
     4    22    23   ar
     5    23     1    1
     6     1     2   ar
     7     2     3   ar
     8     3     6    1
     9     6     7    1
    10     7     8    1
    11     8    15    1
    12    15    16    1
    13    16    17    1
    14    17    18    1
    15    18    19    1
    16    19    20    1
    17     8     9    1
    18     9    10    1
    19    10    11    1
    20    11    12   am
    21    12    13    2
    22     3     4   ar
    23     4     5   ar
    24    23    24   ar
    25    24    25   ar
    26    25    26   ar
    27    26    27    1
    28    27    28   ar
    29    28    29   ar
    30    29    30   ar
    31    30    31    1
    32    30    32   ar
    33    26    21   ar
    34    32    27   ar
    35     5     1   ar
    36    12     6    1
    37    20    15    1
    38    11    14    1
@<TRIPOS>MOLECULE
*****
 34 38 0 0 0
SMALL
GASTEIGER

@<TRIPOS>ATOM
      1 C         140.0840  138.7289  160.6148 C.ar    1  UNL1        0.1233
      2 C         141.4121  138.4083  159.9956 C.ar    1  UNL1        0.1180
      3 N         141.2273  138.3471  158.5083 N.ar    1  UNL1       -0.2233
      4 N         139.7851  138.6298  158.2083 N.ar    1  UNL1       -0.0634
      5 N         139.0785  138.8658  159.5103 N.ar    1  UNL1       -0.1287
      6 C         142.2970  138.0545  157.4982 C.3     1  UNL1        0.1825
      7 C         142.4613  136.6112  157.1239 C.3     1  UNL1        0.0339
      8 C         143.4301  136.0008  156.1549 C.3     1  UNL1        0.0041
      9 C         144.4737  136.6828  155.3210 C.3     1  UNL1        0.0213
     10 C         144.8064  138.1438  155.2499 C.3     1  UNL1        0.0894
     11 N         144.1776  139.2835  155.9953 N.am    1  UNL1       -0.3028
     12 C         143.0607  139.2436  156.9959 C.2     1  UNL1        0.2449
     13 O         142.6539  140.5683  157.5702 O.2     1  UNL1       -0.2730
     14 H         144.5466  140.1755  155.8024 H       1  UNL1        0.1495
     15 C         143.3437  134.5114  155.9994 C.3     1  UNL1        0.0001
     16 C         142.8140  133.9197  154.7269 C.3     1  UNL1        0.0000
     17 C         142.7276  132.4302  154.5713 C.3     1  UNL1        0.0000
     18 C         143.1709  131.5325  155.6883 C.3     1  UNL1        0.0000
     19 C         143.7007  132.1242  156.9608 C.3     1  UNL1        0.0000
     20 C         143.7871  133.6137  157.1164 C.3     1  UNL1        0.0000
     21 C         139.2259  140.3959  164.1127 C.ar    1  UNL1        0.1547
     22 C         139.5002  140.2398  162.6462 C.ar    1  UNL1        0.0400
     23 C         139.8097  138.8852  162.0813 C.ar    1  UNL1        0.0241
     24 C         139.8450  137.6867  162.9827 C.ar    1  UNL1        0.0033
     25 C         139.5708  137.8429  164.4491 C.ar    1  UNL1        0.0207
     26 C         139.2612  139.1976  165.0141 C.ar    1  UNL1        0.0994
     27 N         138.9870  139.3537  166.4805 N.ar    1  UNL1       -0.2839
     28 C         137.8041  138.8024  167.2199 C.ar    1  UNL1        0.1826
     29 N         137.9336  139.1966  168.6614 N.ar    1  UNL1       -0.2280
     30 C         139.1965  139.9915  168.8129 C.ar    1  UNL1        0.0786
     31 C         139.7171  140.5850  170.0883 C.3     1  UNL1        0.0538
     32 C         139.8477  140.0886  167.4651 C.ar    1  UNL1        0.0963
     33 C         137.7175  142.5099  164.1916 C.3     1  UNL1        0.2525
     34 O         138.9164  141.7506  164.6777 O.3     1  UNL1       -0.4700
@<TRIPOS>BOND
     1    33    34    1
     2    34    21    1
     3    21    22   ar
     4    22    23   ar
     5    23     1    1
     6     1     2   ar
     7     2     3   ar
     8     3     6    1
     9     6     7    1
    10     7     8    1
    11     8    15    1
    12    15    16    1
    13    16    17    1
    14    17    18    1
    15    18    19    1
    16    19    20    1
    17     8     9    1
    18     9    10    1
    19    10    11    1
    20    11    12   am
    21    12    13    2
    22     3     4   ar
    23     4     5   ar
    24    23    24   ar
    25    24    25   ar
    26    25    26   ar
    27    26    27    1
    28    27    28   ar
    29    28    29   ar
    30    29    30   ar
    31    30    31    1
    32    30    32   ar
    33    26    21   ar
    34    32    27   ar
    35     5     1   ar
    36    12     6    1
    37    20    15    1
    38    11    14    1
@<TRIPOS>MOLECULE
*****
 34 38 0 0 0
SMALL
GASTEIGER

@<TRIPOS>ATOM
      1 C         140.7531  138.9816  161.1397 C.ar    1  UNL1        0.1233
      2 C         141.9509  138.4989  160.3766 C.ar    1  UNL1        0.1180
      3 N         141.5881  138.4587  158.9217 N.ar    1  UNL1       -0.2233
      4 N         140.1662  138.9165  158.7857 N.ar    1  UNL1       -0.0634
      5 N         139.6501  139.2397  160.1566 N.ar    1  UNL1       -0.1287
      6 C         142.4890  138.0351  157.7996 C.3     1  UNL1        0.1825
      7 C         142.5176  136.5639  157.5081 C.3     1  UNL1        0.0339
      8 C         143.3065  135.8329  156.4624 C.3     1  UNL1        0.0041
      9 C         144.2614  136.3925  155.4501 C.3     1  UNL1        0.0213
     10 C         144.6635  137.8212  155.2333 C.3     1  UNL1        0.0894
     11 N         144.2098  139.0433  155.9754 N.am    1  UNL1       -0.3028
     12 C         143.2420  139.1384  157.1175 C.2     1  UNL1        0.2449
     13 O         142.9947  140.5197  157.6476 O.2     1  UNL1       -0.2730
     14 H         144.5986  139.8957  155.6729 H       1  UNL1        0.1495
     15 C         143.1149  134.3457  156.4241 C.3     1  UNL1        0.0001
     16 C         141.9902  133.7547  155.6268 C.3     1  UNL1        0.0000
     17 C         141.7985  132.2674  155.5885 C.3     1  UNL1        0.0000
     18 C         142.7317  131.3712  156.3474 C.3     1  UNL1        0.0000
     19 C         143.8565  131.9622  157.1447 C.3     1  UNL1        0.0000
     20 C         144.0481  133.4495  157.1830 C.3     1  UNL1        0.0000
     21 C         140.0405  140.6396  164.6744 C.ar    1  UNL1        0.1547
     22 C         140.1209  140.4486  163.1887 C.ar    1  UNL1        0.0400
     23 C         140.6727  139.1726  162.6254 C.ar    1  UNL1        0.0241
     24 C         141.1441  138.0876  163.5477 C.ar    1  UNL1        0.0033
     25 C         141.0636  138.2786  165.0332 C.ar    1  UNL1        0.0207
     26 C         140.5118  139.5546  165.5966 C.ar    1  UNL1        0.0994
     27 N         140.4314  139.7455  167.0822 N.ar    1  UNL1       -0.2839
     28 C         139.1771  139.7442  167.9048 C.ar    1  UNL1        0.1826
     29 N         139.5618  139.9692  169.3371 N.ar    1  UNL1       -0.2280
     30 C         141.0538  140.1094  169.3997 C.ar    1  UNL1        0.0786
     31 C         141.8659  140.3463  170.6385 C.3     1  UNL1        0.0538
     32 C         141.5914  139.9712  168.0062 C.ar    1  UNL1        0.0963
     33 C         140.3662  143.1269  165.3506 C.3     1  UNL1        0.2525
     34 O         139.4887  141.9156  165.2378 O.3     1  UNL1       -0.4700
@<TRIPOS>BOND
     1    33    34    1
     2    34    21    1
     3    21    22   ar
     4    22    23   ar
     5    23     1    1
     6     1     2   ar
     7     2     3   ar
     8     3     6    1
     9     6     7    1
    10     7     8    1
    11     8    15    1
    12    15    16    1
    13    16    17    1
    14    17    18    1
    15    18    19    1
    16    19    20    1
    17     8     9    1
    18     9    10    1
    19    10    11    1
    20    11    12   am
    21    12    13    2
    22     3     4   ar
    23     4     5   ar
    24    23    24   ar
    25    24    25   ar
    26    25    26   ar
    27    26    27    1
    28    27    28   ar
    29    28    29   ar
    30    29    30   ar
    31    30    31    1
    32    30    32   ar
    33    26    21   ar
    34    32    27   ar
    35     5     1   ar
    36    12     6    1
    37    20    15    1
    38    11    14    1
@<TRIPOS>MOLECULE
*****
 34 38 0 0 0
SMALL
GASTEIGER

@<TRIPOS>ATOM
      1 C         142.9194  139.5022  161.7589 C.ar    1  UNL1        0.1233
      2 C         141.8415  140.0127  162.6687 C.ar    1  UNL1        0.1180
      3 N         141.7021  139.0480  163.8088 N.ar    1  UNL1       -0.2233
      4 N         142.6937  137.9414  163.6037 N.ar    1  UNL1       -0.0634
      5 N         143.4460  138.2221  162.3367 N.ar    1  UNL1       -0.1287
      6 C         140.7400  139.1686  164.9533 C.3     1  UNL1        0.1825
      7 C         141.1925  140.0286  166.0960 C.3     1  UNL1        0.0339
      8 C         140.4694  140.3457  167.3714 C.3     1  UNL1        0.0041
      9 C         139.1153  139.8812  167.8190 C.3     1  UNL1        0.0213
     10 C         138.1497  138.9849  167.1020 C.3     1  UNL1        0.0894
     11 N         138.2998  138.3316  165.7600 N.am    1  UNL1       -0.3028
     12 C         139.4527  138.4135  164.8038 C.2     1  UNL1        0.2449
     13 O         139.2976  137.6374  163.5296 O.2     1  UNL1       -0.2730
     14 H         137.5415  137.7757  165.4683 H       1  UNL1        0.1495
     15 C         141.1967  141.2465  168.3252 C.3     1  UNL1        0.0001
     16 C         140.4883  142.4176  168.9388 C.3     1  UNL1        0.0000
     17 C         141.2155  143.3185  169.8926 C.3     1  UNL1        0.0000
     18 C         142.6512  143.0481  170.2327 C.3     1  UNL1        0.0000
     19 C         143.3596  141.8770  169.6191 C.3     1  UNL1        0.0000
     20 C         142.6323  140.9761  168.6653 C.3     1  UNL1        0.0000
     21 C         143.7288  140.0914  157.9186 C.ar    1  UNL1        0.1547
     22 C         143.2600  139.4365  159.1840 C.ar    1  UNL1        0.0400
     23 C         143.3881  140.1570  160.4933 C.ar    1  UNL1        0.0241
     24 C         143.9851  141.5325  160.5372 C.ar    1  UNL1        0.0033
     25 C         144.4538  142.1873  159.2718 C.ar    1  UNL1        0.0207
     26 C         144.3257  141.4668  157.9624 C.ar    1  UNL1        0.0994
     27 N         144.7945  142.1217  156.6970 N.ar    1  UNL1       -0.2839
     28 C         143.9197  142.7490  155.6524 C.ar    1  UNL1        0.1826
     29 N         144.8051  143.2793  154.5638 N.ar    1  UNL1       -0.2280
     30 C         146.2270  142.9797  154.9357 C.ar    1  UNL1        0.0786
     31 C         147.4422  143.3335  154.1305 C.3     1  UNL1        0.0538
     32 C         146.2206  142.2643  156.2540 C.ar    1  UNL1        0.0963
     33 C         142.2528  138.9186  156.1308 C.3     1  UNL1        0.2525
     34 O         143.6006  139.3709  156.6092 O.3     1  UNL1       -0.4700
@<TRIPOS>BOND
     1    33    34    1
     2    34    21    1
     3    21    22   ar
     4    22    23   ar
     5    23     1    1
     6     1     2   ar
     7     2     3   ar
     8     3     6    1
     9     6     7    1
    10     7     8    1
    11     8    15    1
    12    15    16    1
    13    16    17    1
    14    17    18    1
    15    18    19    1
    16    19    20    1
    17     8     9    1
    18     9    10    1
    19    10    11    1
    20    11    12   am
    21    12    13    2
    22     3     4   ar
    23     4     5   ar
    24    23    24   ar
    25    24    25   ar
    26    25    26   ar
    27    26    27    1
    28    27    28   ar
    29    28    29   ar
    30    29    30   ar
    31    30    31    1
    32    30    32   ar
    33    26    21   ar
    34    32    27   ar
    35     5     1   ar
    36    12     6    1
    37    20    15    1
    38    11    14    1
@<TRIPOS>MOLECULE
*****
 34 38 0 0 0
SMALL
GASTEIGER

@<TRIPOS>ATOM
      1 C         140.5726  139.2586  161.0784 C.ar    1  UNL1        0.1233
      2 C         141.8280  138.9415  160.3212 C.ar    1  UNL1        0.1180
      3 N         141.4396  138.5252  158.9334 N.ar    1  UNL1       -0.2233
      4 N         139.9442  138.5851  158.8330 N.ar    1  UNL1       -0.0634
      5 N         139.4083  139.0384  160.1587 N.ar    1  UNL1       -0.1287
      6 C         142.3813  138.1202  157.8383 C.3     1  UNL1        0.1825
      7 C         142.4456  136.6503  157.5459 C.3     1  UNL1        0.0339
      8 C         143.2787  135.9358  156.5234 C.3     1  UNL1        0.0041
      9 C         144.2530  136.5146  155.5408 C.3     1  UNL1        0.0213
     10 C         144.6350  137.9509  155.3379 C.3     1  UNL1        0.0894
     11 N         144.1370  139.1631  156.0677 N.am    1  UNL1       -0.3028
     12 C         143.1340  139.2384  157.1805 C.2     1  UNL1        0.2449
     13 O         142.8455  140.6139  157.7047 O.2     1  UNL1       -0.2730
     14 H         144.5189  140.0230  155.7780 H       1  UNL1        0.1495
     15 C         143.1157  134.4454  156.4775 C.3     1  UNL1        0.0001
     16 C         144.0380  133.5655  157.2680 C.3     1  UNL1        0.0000
     17 C         143.8752  132.0750  157.2222 C.3     1  UNL1        0.0000
     18 C         142.7899  131.4645  156.3858 C.3     1  UNL1        0.0000
     19 C         141.8676  132.3445  155.5952 C.3     1  UNL1        0.0000
     20 C         142.0305  133.8350  155.6411 C.3     1  UNL1        0.0000
     21 C         141.6264  140.0818  164.8150 C.ar    1  UNL1        0.1547
     22 C         141.7039  139.6247  163.3884 C.ar    1  UNL1        0.0400
     23 C         140.4951  139.7157  162.5050 C.ar    1  UNL1        0.0241
     24 C         139.2087  140.2637  163.0482 C.ar    1  UNL1        0.0033
     25 C         139.1313  140.7208  164.4747 C.ar    1  UNL1        0.0207
     26 C         140.3401  140.6299  165.3581 C.ar    1  UNL1        0.0994
     27 N         140.2625  141.0870  166.7846 N.ar    1  UNL1       -0.2839
     28 C         139.8129  140.2599  167.9524 C.ar    1  UNL1        0.1826
     29 N         139.8935  141.1133  169.1833 N.ar    1  UNL1       -0.2280
     30 C         140.3930  142.4678  168.7764 C.ar    1  UNL1        0.0786
     31 C         140.6239  143.6339  169.6913 C.3     1  UNL1        0.0538
     32 C         140.6211  142.4517  167.2939 C.ar    1  UNL1        0.0963
     33 C         143.2693  138.6615  166.2411 C.3     1  UNL1        0.2525
     34 O         142.8352  139.9909  165.6985 O.3     1  UNL1       -0.4700
@<TRIPOS>BOND
     1    33    34    1
     2    34    21    1
     3    21    22   ar
     4    22    23   ar
     5    23     1    1
     6     1     2   ar
     7     2     3   ar
     8     3     6    1
     9     6     7    1
    10     7     8    1
    11     8    15    1
    12    15    16    1
    13    16    17    1
    14    17    18    1
    15    18    19    1
    16    19    20    1
    17     8     9    1
    18     9    10    1
    19    10    11    1
    20    11    12   am
    21    12    13    2
    22     3     4   ar
    23     4     5   ar
    24    23    24   ar
    25    24    25   ar
    26    25    26   ar
    27    26    27    1
    28    27    28   ar
    29    28    29   ar
    30    29    30   ar
    31    30    31    1
    32    30    32   ar
    33    26    21   ar
    34    32    27   ar
    35     5     1   ar
    36    12     6    1
    37    20    15    1
    38    11    14    1
@<TRIPOS>MOLECULE
*****
 34 38 0 0 0
SMALL
GASTEIGER

@<TRIPOS>ATOM
      1 C         143.3069  138.8997  159.5410 C.ar    1  UNL1        0.1233
      2 C         142.5352  137.9795  158.6423 C.ar    1  UNL1        0.1180
      3 N         142.8837  138.3178  157.2231 N.ar    1  UNL1       -0.2233
      4 N         143.8707  139.4470  157.2447 N.ar    1  UNL1       -0.0634
      5 N         144.1323  139.8067  158.6773 N.ar    1  UNL1       -0.1287
      6 C         142.3406  137.6450  155.9974 C.3     1  UNL1        0.1825
      7 C         140.9433  138.0288  155.6094 C.3     1  UNL1        0.0339
      8 C         140.1269  137.5398  154.4499 C.3     1  UNL1        0.0041
      9 C         140.5060  136.5463  153.3922 C.3     1  UNL1        0.0213
     10 C         141.7952  135.7962  153.2324 C.3     1  UNL1        0.0894
     11 N         143.0237  135.8546  154.0912 N.am    1  UNL1       -0.3028
     12 C         143.2663  136.6774  155.3217 C.2     1  UNL1        0.2449
     13 O         144.6130  136.5105  155.9611 O.2     1  UNL1       -0.2730
     14 H         143.7693  135.2765  153.8100 H       1  UNL1        0.1495
     15 C         138.7492  138.1213  154.3329 C.3     1  UNL1        0.0001
     16 C         138.3723  139.3259  155.1433 C.3     1  UNL1        0.0000
     17 C         136.9946  139.9076  155.0264 C.3     1  UNL1        0.0000
     18 C         135.9937  139.2845  154.0990 C.3     1  UNL1        0.0000
     19 C         136.3706  138.0799  153.2885 C.3     1  UNL1        0.0000
     20 C         137.7484  137.4983  153.4055 C.3     1  UNL1        0.0000
     21 C         144.1878  139.7617  163.3134 C.ar    1  UNL1        0.1547
     22 C         144.2337  139.7506  161.8141 C.ar    1  UNL1        0.0400
     23 C         143.2611  138.9109  161.0403 C.ar    1  UNL1        0.0241
     24 C         142.2426  138.0822  161.7657 C.ar    1  UNL1        0.0033
     25 C         142.1968  138.0934  163.2649 C.ar    1  UNL1        0.0207
     26 C         143.1694  138.9331  164.0388 C.ar    1  UNL1        0.0994
     27 N         143.1235  138.9442  165.5381 N.ar    1  UNL1       -0.2839
     28 C         143.8336  137.9872  166.4490 C.ar    1  UNL1        0.1826
     29 N         143.5084  138.3658  167.8636 N.ar    1  UNL1       -0.2280
     30 C         142.5973  139.5568  167.8268 C.ar    1  UNL1        0.0786
     31 C         142.0246  140.2659  169.0181 C.3     1  UNL1        0.0538
     32 C         142.3594  139.9143  166.3896 C.ar    1  UNL1        0.0963
     33 C         144.9443  142.0809  164.2073 C.3     1  UNL1        0.2525
     34 O         145.1604  140.6014  164.0874 O.3     1  UNL1       -0.4700
@<TRIPOS>BOND
     1    33    34    1
     2    34    21    1
     3    21    22   ar
     4    22    23   ar
     5    23     1    1
     6     1     2   ar
     7     2     3   ar
     8     3     6    1
     9     6     7    1
    10     7     8    1
    11     8    15    1
    12    15    16    1
    13    16    17    1
    14    17    18    1
    15    18    19    1
    16    19    20    1
    17     8     9    1
    18     9    10    1
    19    10    11    1
    20    11    12   am
    21    12    13    2
    22     3     4   ar
    23     4     5   ar
    24    23    24   ar
    25    24    25   ar
    26    25    26   ar
    27    26    27    1
    28    27    28   ar
    29    28    29   ar
    30    29    30   ar
    31    30    31    1
    32    30    32   ar
    33    26    21   ar
    34    32    27   ar
    35     5     1   ar
    36    12     6    1
    37    20    15    1
    38    11    14    1
