@<TRIPOS>MOLECULE
*****
 36 39 0 0 0
SMALL
GASTEIGER

@<TRIPOS>ATOM
      1 C         140.3736  139.4287  159.1091 C.3     1  UNL1        0.0118
      2 C         139.0835  139.0082  159.7485 C.3     1  UNL1        0.0179
      3 C         139.0982  138.2909  161.0657 C.3     1  UNL1        0.0724
      4 N         140.4029  137.9940  161.7435 N.3     1  UNL1       -0.2689
      5 C         141.6930  138.4144  161.1042 C.3     1  UNL1        0.0724
      6 C         141.6784  139.1318  159.7869 C.3     1  UNL1        0.0179
      7 C         140.3590  140.1461  157.7918 C.3     1  UNL1        0.0854
      8 C         137.1952  142.3803  156.9266 C.3     1  UNL1        0.1149
      9 N         138.4975  141.9389  157.5258 N.am    1  UNL1       -0.2773
     10 C         139.0567  140.5874  157.1926 C.2     1  UNL1        0.2257
     11 O         138.3134  139.6774  156.2601 O.2     1  UNL1       -0.2749
     12 C         139.2407  142.8489  158.4583 C.3     1  UNL1        0.1030
     13 C         138.9619  142.8034  159.9314 C.3     1  UNL1        0.1067
     14 C         139.7159  143.7026  160.8656 C.2     1  UNL1        0.2274
     15 O         141.0020  144.3350  160.4230 O.2     1  UNL1       -0.2748
     16 N         139.1839  143.9695  162.2425 N.am    1  UNL1       -0.2795
     17 C         139.8241  144.8417  163.2814 C.3     1  UNL1        0.0935
     18 C         138.9541  144.8223  164.5031 C.3     1  UNL1        0.0233
     19 C         137.7762  143.9380  164.2193 C.3     1  UNL1        0.0233
     20 C         137.9182  143.4109  162.8221 C.3     1  UNL1        0.0935
     21 C         140.4176  137.2766  163.0609 C.3     1  UNL1        0.1007
     22 C         140.1682  138.0350  164.3307 C.ar    1  UNL1        0.0129
     23 C         138.8841  138.0589  165.1057 C.ar    1  UNL1        0.0176
     24 C         139.0813  138.9414  166.3024 C.ar    1  UNL1        0.0799
     25 N         140.4873  139.4629  166.2672 N.ar    1  UNL1       -0.3038
     26 C         141.1590  138.9028  165.0485 C.ar    1  UNL1        0.0772
     27 C         141.1119  140.3830  167.2737 C.ar    1  UNL1        0.0640
     28 C         142.3016  139.9302  168.0671 C.ar    1  UNL1        0.0175
     29 C         142.9262  140.8503  169.0737 C.ar    1  UNL1        0.0053
     30 C         142.3611  142.2233  169.2869 C.ar    1  UNL1        0.0715
     31 C         141.1714  142.6762  168.4935 C.ar    1  UNL1        0.0053
     32 C         140.5468  141.7561  167.4870 C.ar    1  UNL1        0.0175
     33 C         142.9857  143.1434  170.2935 C.3     1  UNL1        0.4186
     34 F         143.6103  144.0636  171.3001 F       1  UNL1       -0.1659
     35 F         144.2364  142.3155  170.2742 F       1  UNL1       -0.1659
     36 F         141.7350  143.9714  170.3128 F       1  UNL1       -0.1659
@<TRIPOS>BOND
     1     8     9    1
     2     9    12    1
     3    12    13    1
     4    13    14    1
     5    14    15    2
     6    14    16   am
     7    16    17    1
     8    17    18    1
     9    18    19    1
    10    19    20    1
    11     9    10   am
    12    10    11    2
    13    10     7    1
    14     7     1    1
    15     1     2    1
    16     2     3    1
    17     3     4    1
    18     4    21    1
    19    21    22    1
    20    22    23   ar
    21    23    24   ar
    22    24    25   ar
    23    25    27    1
    24    27    28   ar
    25    28    29   ar
    26    29    30   ar
    27    30    33    1
    28    33    34    1
    29    33    35    1
    30    33    36    1
    31    30    31   ar
    32    31    32   ar
    33    25    26   ar
    34     4     5    1
    35     5     6    1
    36    20    16    1
    37     6     1    1
    38    26    22   ar
    39    32    27   ar
@<TRIPOS>MOLECULE
*****
 36 39 0 0 0
SMALL
GASTEIGER

@<TRIPOS>ATOM
      1 C         141.4671  139.8940  159.4072 C.3     1  UNL1        0.0118
      2 C         140.1647  140.2907  160.0366 C.3     1  UNL1        0.0179
      3 C         139.6241  139.5096  161.1975 C.3     1  UNL1        0.0724
      4 N         140.3860  138.3318  161.7289 N.3     1  UNL1       -0.2689
      5 C         141.6885  137.9352  161.0995 C.3     1  UNL1        0.0724
      6 C         142.2290  138.7163  159.9386 C.3     1  UNL1        0.0179
      7 C         142.0077  140.6751  158.2462 C.3     1  UNL1        0.0854
      8 C         145.3997  142.6858  158.6949 C.3     1  UNL1        0.1149
      9 N         143.9424  142.3347  158.7491 N.am    1  UNL1       -0.2773
     10 C         143.4650  141.0263  158.1920 C.2     1  UNL1        0.2257
     11 O         144.4449  140.0691  157.5808 O.2     1  UNL1       -0.2749
     12 C         142.9625  143.2919  159.3603 C.3     1  UNL1        0.1030
     13 C         142.5891  143.1610  160.8072 C.3     1  UNL1        0.1067
     14 C         143.6328  143.3373  161.8700 C.2     1  UNL1        0.2274
     15 O         144.1537  144.7070  162.1898 O.2     1  UNL1       -0.2748
     16 N         144.1556  142.1437  162.6131 N.am    1  UNL1       -0.2795
     17 C         145.1937  142.1643  163.6956 C.3     1  UNL1        0.0935
     18 C         145.4117  140.7534  164.1557 C.3     1  UNL1        0.0233
     19 C         144.5084  139.8607  163.3574 C.3     1  UNL1        0.0233
     20 C         143.7321  140.7201  162.4040 C.3     1  UNL1        0.0935
     21 C         139.8454  137.5507  162.8898 C.3     1  UNL1        0.1007
     22 C         139.7137  138.2010  164.2351 C.ar    1  UNL1        0.0129
     23 C         138.5420  138.0770  165.1633 C.ar    1  UNL1        0.0176
     24 C         138.8346  138.8888  166.3902 C.ar    1  UNL1        0.0799
     25 N         140.1873  139.5145  166.2203 N.ar    1  UNL1       -0.3038
     26 C         140.7305  139.0894  164.8883 C.ar    1  UNL1        0.0772
     27 C         140.8757  140.4084  167.2087 C.ar    1  UNL1        0.0640
     28 C         142.2889  140.8481  166.9650 C.ar    1  UNL1        0.0175
     29 C         142.9773  141.7420  167.9534 C.ar    1  UNL1        0.0053
     30 C         142.2525  142.1962  169.1856 C.ar    1  UNL1        0.0715
     31 C         140.8393  141.7565  169.4294 C.ar    1  UNL1        0.0053
     32 C         140.1509  140.8626  168.4409 C.ar    1  UNL1        0.0175
     33 C         142.9410  143.0900  170.1740 C.3     1  UNL1        0.4186
     34 F         143.6293  143.9840  171.1625 F       1  UNL1       -0.1659
     35 F         144.1879  142.2653  170.0514 F       1  UNL1       -0.1659
     36 F         141.6940  143.9149  170.2966 F       1  UNL1       -0.1659
@<TRIPOS>BOND
     1     8     9    1
     2     9    12    1
     3    12    13    1
     4    13    14    1
     5    14    15    2
     6    14    16   am
     7    16    17    1
     8    17    18    1
     9    18    19    1
    10    19    20    1
    11     9    10   am
    12    10    11    2
    13    10     7    1
    14     7     1    1
    15     1     2    1
    16     2     3    1
    17     3     4    1
    18     4    21    1
    19    21    22    1
    20    22    23   ar
    21    23    24   ar
    22    24    25   ar
    23    25    27    1
    24    27    28   ar
    25    28    29   ar
    26    29    30   ar
    27    30    33    1
    28    33    34    1
    29    33    35    1
    30    33    36    1
    31    30    31   ar
    32    31    32   ar
    33    25    26   ar
    34     4     5    1
    35     5     6    1
    36    20    16    1
    37     6     1    1
    38    26    22   ar
    39    32    27   ar
@<TRIPOS>MOLECULE
*****
 36 39 0 0 0
SMALL
GASTEIGER

@<TRIPOS>ATOM
      1 C         138.3123  140.0916  159.6991 C.3     1  UNL1        0.0118
      2 C         139.2571  138.9313  159.5957 C.3     1  UNL1        0.0179
      3 C         139.5724  138.1102  160.8108 C.3     1  UNL1        0.0724
      4 N         138.9427  138.4496  162.1293 N.3     1  UNL1       -0.2689
      5 C         137.9979  139.6100  162.2327 C.3     1  UNL1        0.0724
      6 C         137.6826  140.4310  161.0176 C.3     1  UNL1        0.0179
      7 C         137.9970  140.9127  158.4840 C.3     1  UNL1        0.0854
      8 C         141.0296  142.6828  156.6346 C.3     1  UNL1        0.1149
      9 N         139.9582  142.3955  157.6443 N.am    1  UNL1       -0.2773
     10 C         139.0684  141.2000  157.4742 C.2     1  UNL1        0.2257
     11 O         139.2499  140.2917  156.2943 O.2     1  UNL1       -0.2749
     12 C         139.7767  143.3038  158.8242 C.3     1  UNL1        0.1030
     13 C         140.6271  143.1243  160.0467 C.3     1  UNL1        0.1067
     14 C         140.4497  144.0364  161.2243 C.2     1  UNL1        0.2274
     15 O         139.1011  144.6209  161.5237 O.2     1  UNL1       -0.2748
     16 N         141.6209  144.3641  162.1023 N.am    1  UNL1       -0.2795
     17 C         141.5965  145.2557  163.3083 C.3     1  UNL1        0.0935
     18 C         142.9826  145.3003  163.8798 C.3     1  UNL1        0.0233
     19 C         143.8636  144.4361  163.0270 C.3     1  UNL1        0.0233
     20 C         143.0220  143.8576  161.9285 C.3     1  UNL1        0.0935
     21 C         139.2580  137.6285  163.3444 C.3     1  UNL1        0.1007
     22 C         139.2696  138.2696  164.7004 C.ar    1  UNL1        0.0129
     23 C         138.2078  138.1301  165.7507 C.ar    1  UNL1        0.0176
     24 C         138.6270  138.9370  166.9437 C.ar    1  UNL1        0.0799
     25 N         139.9479  139.5752  166.6307 N.ar    1  UNL1       -0.3038
     26 C         140.3451  139.1627  165.2443 C.ar    1  UNL1        0.0772
     27 C         140.7337  140.4689  167.5438 C.ar    1  UNL1        0.0640
     28 C         140.0481  141.5871  168.2714 C.ar    1  UNL1        0.0175
     29 C         140.8338  142.4808  169.1845 C.ar    1  UNL1        0.0053
     30 C         142.3052  142.2564  169.3700 C.ar    1  UNL1        0.0715
     31 C         142.9909  141.1382  168.6424 C.ar    1  UNL1        0.0053
     32 C         142.2052  140.2445  167.7293 C.ar    1  UNL1        0.0175
     33 C         143.0910  143.1501  170.2831 C.3     1  UNL1        0.4186
     34 F         143.8769  144.0438  171.1962 F       1  UNL1       -0.1659
     35 F         141.9195  144.0820  170.3792 F       1  UNL1       -0.1659
     36 F         144.2626  142.2183  170.1871 F       1  UNL1       -0.1659
@<TRIPOS>BOND
     1     8     9    1
     2     9    12    1
     3    12    13    1
     4    13    14    1
     5    14    15    2
     6    14    16   am
     7    16    17    1
     8    17    18    1
     9    18    19    1
    10    19    20    1
    11     9    10   am
    12    10    11    2
    13    10     7    1
    14     7     1    1
    15     1     2    1
    16     2     3    1
    17     3     4    1
    18     4    21    1
    19    21    22    1
    20    22    23   ar
    21    23    24   ar
    22    24    25   ar
    23    25    27    1
    24    27    28   ar
    25    28    29   ar
    26    29    30   ar
    27    30    33    1
    28    33    34    1
    29    33    35    1
    30    33    36    1
    31    30    31   ar
    32    31    32   ar
    33    25    26   ar
    34     4     5    1
    35     5     6    1
    36    20    16    1
    37     6     1    1
    38    26    22   ar
    39    32    27   ar
@<TRIPOS>MOLECULE
*****
 36 39 0 0 0
SMALL
GASTEIGER

@<TRIPOS>ATOM
      1 C         139.1323  140.1022  159.4613 C.3     1  UNL1        0.0118
      2 C         139.3918  141.5767  159.5530 C.3     1  UNL1        0.0179
      3 C         138.8258  142.3683  160.6944 C.3     1  UNL1        0.0724
      4 N         138.0002  141.6854  161.7442 N.3     1  UNL1       -0.2689
      5 C         137.7406  140.2109  161.6525 C.3     1  UNL1        0.0724
      6 C         138.3067  139.4193  160.5111 C.3     1  UNL1        0.0179
      7 C         139.6984  139.3106  158.3198 C.3     1  UNL1        0.0854
      8 C         143.6116  139.4802  157.6812 C.3     1  UNL1        0.1149
      9 N         142.2875  139.0994  158.2742 N.am    1  UNL1       -0.2773
     10 C         141.0225  139.6913  157.7268 C.2     1  UNL1        0.2257
     11 O         141.0817  140.6639  156.5864 O.2     1  UNL1       -0.2749
     12 C         142.2282  138.1268  159.4146 C.3     1  UNL1        0.1030
     13 C         142.7707  138.5130  160.7587 C.3     1  UNL1        0.1067
     14 C         142.0303  138.1279  162.0051 C.2     1  UNL1        0.2274
     15 O         140.7256  137.3946  161.9062 O.2     1  UNL1       -0.2748
     16 N         142.5947  138.4763  163.3505 N.am    1  UNL1       -0.2795
     17 C         141.9712  138.1586  164.6773 C.3     1  UNL1        0.0935
     18 C         142.8728  138.6895  165.7521 C.3     1  UNL1        0.0233
     19 C         144.0536  139.3352  165.0896 C.3     1  UNL1        0.0233
     20 C         143.8816  139.2035  163.6053 C.3     1  UNL1        0.0935
     21 C         137.4341  142.4771  162.8857 C.3     1  UNL1        0.1007
     22 C         138.2704  142.7418  164.1024 C.ar    1  UNL1        0.0129
     23 C         138.5453  144.0864  164.7078 C.ar    1  UNL1        0.0176
     24 C         139.4235  143.8840  165.9069 C.ar    1  UNL1        0.0799
     25 N         139.6913  142.4144  166.0426 N.ar    1  UNL1       -0.3038
     26 C         138.9786  141.7084  164.9274 C.ar    1  UNL1        0.0772
     27 C         140.5253  141.7647  167.1068 C.ar    1  UNL1        0.0640
     28 C         139.9413  140.6756  167.9568 C.ar    1  UNL1        0.0175
     29 C         140.7753  140.0259  169.0209 C.ar    1  UNL1        0.0053
     30 C         142.1933  140.4655  169.2350 C.ar    1  UNL1        0.0715
     31 C         142.7773  141.5547  168.3851 C.ar    1  UNL1        0.0053
     32 C         141.9434  142.2043  167.3209 C.ar    1  UNL1        0.0175
     33 C         143.0273  139.8158  170.2992 C.3     1  UNL1        0.4186
     34 F         143.8613  139.1663  171.3633 F       1  UNL1       -0.1659
     35 F         142.1488  138.6011  170.2461 F       1  UNL1       -0.1659
     36 F         143.9057  141.0306  170.3523 F       1  UNL1       -0.1659
@<TRIPOS>BOND
     1     8     9    1
     2     9    12    1
     3    12    13    1
     4    13    14    1
     5    14    15    2
     6    14    16   am
     7    16    17    1
     8    17    18    1
     9    18    19    1
    10    19    20    1
    11     9    10   am
    12    10    11    2
    13    10     7    1
    14     7     1    1
    15     1     2    1
    16     2     3    1
    17     3     4    1
    18     4    21    1
    19    21    22    1
    20    22    23   ar
    21    23    24   ar
    22    24    25   ar
    23    25    27    1
    24    27    28   ar
    25    28    29   ar
    26    29    30   ar
    27    30    33    1
    28    33    34    1
    29    33    35    1
    30    33    36    1
    31    30    31   ar
    32    31    32   ar
    33    25    26   ar
    34     4     5    1
    35     5     6    1
    36    20    16    1
    37     6     1    1
    38    26    22   ar
    39    32    27   ar
@<TRIPOS>MOLECULE
*****
 36 39 0 0 0
SMALL
GASTEIGER

@<TRIPOS>ATOM
      1 C         138.2569  139.9773  159.5879 C.3     1  UNL1        0.0118
      2 C         139.2724  138.8734  159.5885 C.3     1  UNL1        0.0179
      3 C         139.5177  138.0807  160.8381 C.3     1  UNL1        0.0724
      4 N         138.7475  138.3921  162.0871 N.3     1  UNL1       -0.2689
      5 C         137.7320  139.4960  162.0864 C.3     1  UNL1        0.0724
      6 C         137.4867  140.2886  160.8368 C.3     1  UNL1        0.0179
      7 C         138.0116  140.7700  158.3382 C.3     1  UNL1        0.0854
      8 C         141.4339  142.0394  156.7807 C.3     1  UNL1        0.1149
      9 N         140.3182  141.8153  157.7579 N.am    1  UNL1       -0.2773
     10 C         139.1273  140.9941  157.3610 C.2     1  UNL1        0.2257
     11 O         139.0522  140.3971  155.9870 O.2     1  UNL1       -0.2749
     12 C         140.3933  142.4124  159.1319 C.3     1  UNL1        0.1030
     13 C         139.8840  143.8022  159.3746 C.3     1  UNL1        0.1067
     14 C         140.3298  144.5631  160.5879 C.2     1  UNL1        0.2274
     15 O         141.5249  145.4662  160.5098 O.2     1  UNL1       -0.2748
     16 N         139.5804  144.4210  161.8795 N.am    1  UNL1       -0.2795
     17 C         139.9064  145.1146  163.1690 C.3     1  UNL1        0.0935
     18 C         138.9010  144.6826  164.1948 C.3     1  UNL1        0.0233
     19 C         137.9536  143.7219  163.5394 C.3     1  UNL1        0.0233
     20 C         138.3735  143.5602  162.1085 C.3     1  UNL1        0.0935
     21 C         138.9928  137.5994  163.3367 C.3     1  UNL1        0.1007
     22 C         140.1209  137.9726  164.2522 C.ar    1  UNL1        0.0129
     23 C         141.4443  137.2734  164.3511 C.ar    1  UNL1        0.0176
     24 C         142.2649  137.9791  165.3896 C.ar    1  UNL1        0.0799
     25 N         141.4486  139.1145  165.9326 N.ar    1  UNL1       -0.3038
     26 C         140.1236  139.1104  165.2297 C.ar    1  UNL1        0.0772
     27 C         141.8815  140.0837  166.9924 C.ar    1  UNL1        0.0640
     28 C         141.6593  141.5545  166.7996 C.ar    1  UNL1        0.0175
     29 C         142.0922  142.5237  167.8595 C.ar    1  UNL1        0.0053
     30 C         142.7472  142.0221  169.1121 C.ar    1  UNL1        0.0715
     31 C         142.9694  140.5512  169.3050 C.ar    1  UNL1        0.0053
     32 C         142.5366  139.5820  168.2451 C.ar    1  UNL1        0.0175
     33 C         143.1801  142.9913  170.1719 C.3     1  UNL1        0.4186
     34 F         143.6130  143.9605  171.2318 F       1  UNL1       -0.1659
     35 F         141.8125  143.6076  170.1669 F       1  UNL1       -0.1659
     36 F         144.5477  142.3750  170.1770 F       1  UNL1       -0.1659
@<TRIPOS>BOND
     1     8     9    1
     2     9    12    1
     3    12    13    1
     4    13    14    1
     5    14    15    2
     6    14    16   am
     7    16    17    1
     8    17    18    1
     9    18    19    1
    10    19    20    1
    11     9    10   am
    12    10    11    2
    13    10     7    1
    14     7     1    1
    15     1     2    1
    16     2     3    1
    17     3     4    1
    18     4    21    1
    19    21    22    1
    20    22    23   ar
    21    23    24   ar
    22    24    25   ar
    23    25    27    1
    24    27    28   ar
    25    28    29   ar
    26    29    30   ar
    27    30    33    1
    28    33    34    1
    29    33    35    1
    30    33    36    1
    31    30    31   ar
    32    31    32   ar
    33    25    26   ar
    34     4     5    1
    35     5     6    1
    36    20    16    1
    37     6     1    1
    38    26    22   ar
    39    32    27   ar
@<TRIPOS>MOLECULE
*****
 36 39 0 0 0
SMALL
GASTEIGER

@<TRIPOS>ATOM
      1 C         141.4094  138.7425  159.3436 C.3     1  UNL1        0.0118
      2 C         141.2409  138.3091  160.7697 C.3     1  UNL1        0.0179
      3 C         142.2990  138.6336  161.7821 C.3     1  UNL1        0.0724
      4 N         143.5255  139.3916  161.3685 N.3     1  UNL1       -0.2689
      5 C         143.6940  139.8250  159.9424 C.3     1  UNL1        0.0724
      6 C         142.6359  139.5005  158.9300 C.3     1  UNL1        0.0179
      7 C         140.3512  138.4179  158.3311 C.3     1  UNL1        0.0854
      8 C         138.6017  141.3587  156.3209 C.3     1  UNL1        0.1149
      9 N         138.9185  140.3817  157.4141 N.am    1  UNL1       -0.2773
     10 C         140.0344  139.3949  157.2379 C.2     1  UNL1        0.2257
     11 O         140.8334  139.3850  155.9685 O.2     1  UNL1       -0.2749
     12 C         138.1195  140.3915  158.6836 C.3     1  UNL1        0.1030
     13 C         138.5686  141.2263  159.8460 C.3     1  UNL1        0.1067
     14 C         138.1828  140.8372  161.2423 C.2     1  UNL1        0.2274
     15 O         137.8943  139.4017  161.5683 O.2     1  UNL1       -0.2748
     16 N         138.0854  141.8834  162.3127 N.am    1  UNL1       -0.2795
     17 C         137.7132  141.6462  163.7463 C.3     1  UNL1        0.0935
     18 C         137.7410  142.9668  164.4571 C.3     1  UNL1        0.0233
     19 C         138.1303  144.0202  163.4627 C.3     1  UNL1        0.0233
     20 C         138.3432  143.3507  162.1375 C.3     1  UNL1        0.0935
     21 C         144.5837  139.7162  162.3810 C.3     1  UNL1        0.1007
     22 C         144.3211  140.7508  163.4348 C.ar    1  UNL1        0.0129
     23 C         145.0327  142.0634  163.5784 C.ar    1  UNL1        0.0176
     24 C         144.4522  142.7783  164.7624 C.ar    1  UNL1        0.0799
     25 N         143.3819  141.9074  165.3508 N.ar    1  UNL1       -0.3038
     26 C         143.3009  140.6544  164.5303 C.ar    1  UNL1        0.0772
     27 C         142.5404  142.2326  166.5492 C.ar    1  UNL1        0.0640
     28 C         143.1403  142.1817  167.9230 C.ar    1  UNL1        0.0175
     29 C         142.2988  142.5068  169.1213 C.ar    1  UNL1        0.0053
     30 C         140.8574  142.8828  168.9459 C.ar    1  UNL1        0.0715
     31 C         140.2574  142.9337  167.5721 C.ar    1  UNL1        0.0053
     32 C         141.0989  142.6086  166.3737 C.ar    1  UNL1        0.0175
     33 C         140.0159  143.2080  170.1443 C.3     1  UNL1        0.4186
     34 F         139.1744  143.5330  171.3427 F       1  UNL1       -0.1659
     35 F         140.2864  144.6688  169.9379 F       1  UNL1       -0.1659
     36 F         139.7453  141.7470  170.3507 F       1  UNL1       -0.1659
@<TRIPOS>BOND
     1     8     9    1
     2     9    12    1
     3    12    13    1
     4    13    14    1
     5    14    15    2
     6    14    16   am
     7    16    17    1
     8    17    18    1
     9    18    19    1
    10    19    20    1
    11     9    10   am
    12    10    11    2
    13    10     7    1
    14     7     1    1
    15     1     2    1
    16     2     3    1
    17     3     4    1
    18     4    21    1
    19    21    22    1
    20    22    23   ar
    21    23    24   ar
    22    24    25   ar
    23    25    27    1
    24    27    28   ar
    25    28    29   ar
    26    29    30   ar
    27    30    33    1
    28    33    34    1
    29    33    35    1
    30    33    36    1
    31    30    31   ar
    32    31    32   ar
    33    25    26   ar
    34     4     5    1
    35     5     6    1
    36    20    16    1
    37     6     1    1
    38    26    22   ar
    39    32    27   ar
@<TRIPOS>MOLECULE
*****
 36 39 0 0 0
SMALL
GASTEIGER

@<TRIPOS>ATOM
      1 C         141.0973  144.3629  158.7441 C.3     1  UNL1        0.0118
      2 C         140.9286  145.0353  160.0743 C.3     1  UNL1        0.0179
      3 C         141.8991  144.7572  161.1837 C.3     1  UNL1        0.0724
      4 N         143.0384  143.8067  160.9628 N.3     1  UNL1       -0.2689
      5 C         143.2071  143.1344  159.6326 C.3     1  UNL1        0.0724
      6 C         142.2365  143.4125  158.5233 C.3     1  UNL1        0.0179
      7 C         140.1267  144.6410  157.6347 C.3     1  UNL1        0.0854
      8 C         138.4292  141.3768  156.1471 C.3     1  UNL1        0.1149
      9 N         138.8053  142.4676  157.1055 N.am    1  UNL1       -0.2773
     10 C         139.7506  143.5502  156.6763 C.2     1  UNL1        0.2257
     11 O         140.3198  143.5421  155.2885 O.2     1  UNL1       -0.2749
     12 C         138.2361  142.4757  158.4933 C.3     1  UNL1        0.1030
     13 C         138.9641  141.7826  159.6067 C.3     1  UNL1        0.1067
     14 C         138.1925  141.1188  160.7084 C.2     1  UNL1        0.2274
     15 O         137.4346  139.8533  160.4363 O.2     1  UNL1       -0.2748
     16 N         138.1787  141.7205  162.0824 N.am    1  UNL1       -0.2795
     17 C         137.4562  141.1730  163.2775 C.3     1  UNL1        0.0935
     18 C         137.7159  142.0894  164.4362 C.3     1  UNL1        0.0233
     19 C         138.5990  143.2034  163.9572 C.3     1  UNL1        0.0233
     20 C         138.8850  142.9753  162.5024 C.3     1  UNL1        0.0935
     21 C         144.0089  143.5286  162.0722 C.3     1  UNL1        0.1007
     22 C         143.5867  142.6976  163.2474 C.ar    1  UNL1        0.0129
     23 C         144.4350  142.3569  164.4366 C.ar    1  UNL1        0.0176
     24 C         143.6147  141.5100  165.3638 C.ar    1  UNL1        0.0799
     25 N         142.2593  141.3273  164.7476 N.ar    1  UNL1       -0.3038
     26 C         142.2420  142.0612  163.4396 C.ar    1  UNL1        0.0772
     27 C         141.1211  140.5475  165.3362 C.ar    1  UNL1        0.0640
     28 C         140.5409  139.3854  164.5860 C.ar    1  UNL1        0.0175
     29 C         139.4027  138.6057  165.1746 C.ar    1  UNL1        0.0053
     30 C         138.8446  138.9880  166.5133 C.ar    1  UNL1        0.0715
     31 C         139.4248  140.1501  167.2636 C.ar    1  UNL1        0.0053
     32 C         140.5630  140.9299  166.6750 C.ar    1  UNL1        0.0175
     33 C         137.7064  138.2082  167.1019 C.3     1  UNL1        0.4186
     34 F         136.5682  137.4285  167.6905 F       1  UNL1       -0.1659
     35 F         137.7904  137.2298  165.9680 F       1  UNL1       -0.1659
     36 F         137.6224  139.1867  168.2358 F       1  UNL1       -0.1659
@<TRIPOS>BOND
     1     8     9    1
     2     9    12    1
     3    12    13    1
     4    13    14    1
     5    14    15    2
     6    14    16   am
     7    16    17    1
     8    17    18    1
     9    18    19    1
    10    19    20    1
    11     9    10   am
    12    10    11    2
    13    10     7    1
    14     7     1    1
    15     1     2    1
    16     2     3    1
    17     3     4    1
    18     4    21    1
    19    21    22    1
    20    22    23   ar
    21    23    24   ar
    22    24    25   ar
    23    25    27    1
    24    27    28   ar
    25    28    29   ar
    26    29    30   ar
    27    30    33    1
    28    33    34    1
    29    33    35    1
    30    33    36    1
    31    30    31   ar
    32    31    32   ar
    33    25    26   ar
    34     4     5    1
    35     5     6    1
    36    20    16    1
    37     6     1    1
    38    26    22   ar
    39    32    27   ar
@<TRIPOS>MOLECULE
*****
 36 39 0 0 0
SMALL
GASTEIGER

@<TRIPOS>ATOM
      1 C         138.8736  141.4379  159.6271 C.3     1  UNL1        0.0118
      2 C         138.0974  141.5704  160.9037 C.3     1  UNL1        0.0179
      3 C         138.1898  140.5016  161.9520 C.3     1  UNL1        0.0724
      4 N         139.0585  139.3002  161.7236 N.3     1  UNL1       -0.2689
      5 C         139.8347  139.1677  160.4470 C.3     1  UNL1        0.0724
      6 C         139.7423  140.2365  159.3987 C.3     1  UNL1        0.0179
      7 C         138.7812  142.5068  158.5787 C.3     1  UNL1        0.0854
      8 C         141.8738  144.9802  158.3182 C.3     1  UNL1        0.1149
      9 N         140.6274  144.3179  158.8260 N.am    1  UNL1       -0.2773
     10 C         140.0276  143.1690  158.0709 C.2     1  UNL1        0.2257
     11 O         140.6742  142.6823  156.8079 O.2     1  UNL1       -0.2749
     12 C         139.9808  144.8046  160.0890 C.3     1  UNL1        0.1030
     13 C         140.8016  145.5078  161.1290 C.3     1  UNL1        0.1067
     14 C         141.3660  144.7377  162.2859 C.2     1  UNL1        0.2274
     15 O         142.7816  144.2441  162.2393 O.2     1  UNL1       -0.2748
     16 N         140.5146  144.4611  163.4896 N.am    1  UNL1       -0.2795
     17 C         140.9390  143.7084  164.7156 C.3     1  UNL1        0.0935
     18 C         139.7761  143.6708  165.6623 C.3     1  UNL1        0.0233
     19 C         138.6329  144.4005  165.0212 C.3     1  UNL1        0.0233
     20 C         139.0894  144.8889  163.6784 C.3     1  UNL1        0.0935
     21 C         139.1509  138.2313  162.7720 C.3     1  UNL1        0.1007
     22 C         139.2577  138.6082  164.2200 C.ar    1  UNL1        0.0129
     23 C         138.4187  138.0625  165.3372 C.ar    1  UNL1        0.0176
     24 C         138.8646  138.7140  166.6126 C.ar    1  UNL1        0.0799
     25 N         139.9794  139.6623  166.2836 N.ar    1  UNL1       -0.3038
     26 C         140.2223  139.5969  164.8049 C.ar    1  UNL1        0.0772
     27 C         140.7209  140.5245  167.2617 C.ar    1  UNL1        0.0640
     28 C         140.0539  140.9622  168.5318 C.ar    1  UNL1        0.0175
     29 C         140.7955  141.8244  169.5099 C.ar    1  UNL1        0.0053
     30 C         142.2040  142.2490  169.2178 C.ar    1  UNL1        0.0715
     31 C         142.8712  141.8114  167.9476 C.ar    1  UNL1        0.0053
     32 C         142.1296  140.9492  166.9695 C.ar    1  UNL1        0.0175
     33 C         142.9456  143.1113  170.1958 C.3     1  UNL1        0.4186
     34 F         143.6873  143.9735  171.1738 F       1  UNL1       -0.1659
     35 F         141.7330  143.9808  170.3486 F       1  UNL1       -0.1659
     36 F         144.1583  142.2417  170.0430 F       1  UNL1       -0.1659
@<TRIPOS>BOND
     1     8     9    1
     2     9    12    1
     3    12    13    1
     4    13    14    1
     5    14    15    2
     6    14    16   am
     7    16    17    1
     8    17    18    1
     9    18    19    1
    10    19    20    1
    11     9    10   am
    12    10    11    2
    13    10     7    1
    14     7     1    1
    15     1     2    1
    16     2     3    1
    17     3     4    1
    18     4    21    1
    19    21    22    1
    20    22    23   ar
    21    23    24   ar
    22    24    25   ar
    23    25    27    1
    24    27    28   ar
    25    28    29   ar
    26    29    30   ar
    27    30    33    1
    28    33    34    1
    29    33    35    1
    30    33    36    1
    31    30    31   ar
    32    31    32   ar
    33    25    26   ar
    34     4     5    1
    35     5     6    1
    36    20    16    1
    37     6     1    1
    38    26    22   ar
    39    32    27   ar
@<TRIPOS>MOLECULE
*****
 36 39 0 0 0
SMALL
GASTEIGER

@<TRIPOS>ATOM
      1 C         140.6083  138.8892  159.1526 C.3     1  UNL1        0.0118
      2 C         139.3314  138.6109  159.8888 C.3     1  UNL1        0.0179
      3 C         139.3733  138.0065  161.2610 C.3     1  UNL1        0.0724
      4 N         140.6921  137.6805  161.8970 N.3     1  UNL1       -0.2689
      5 C         141.9690  137.9588  161.1608 C.3     1  UNL1        0.0724
      6 C         141.9271  138.5632  159.7885 C.3     1  UNL1        0.0179
      7 C         140.5665  139.4935  157.7803 C.3     1  UNL1        0.0854
      8 C         137.3239  141.4505  156.5945 C.3     1  UNL1        0.1149
      9 N         138.6433  141.1562  157.2445 N.am    1  UNL1       -0.2773
     10 C         139.2471  139.7878  157.1303 C.2     1  UNL1        0.2257
     11 O         138.5313  138.7137  156.3661 O.2     1  UNL1       -0.2749
     12 C         139.3591  142.2303  158.0087 C.3     1  UNL1        0.1030
     13 C         138.7392  142.8114  159.2448 C.3     1  UNL1        0.1067
     14 C         138.8908  142.1087  160.5613 C.2     1  UNL1        0.2274
     15 O         137.6815  141.5754  161.2705 O.2     1  UNL1       -0.2748
     16 N         140.2519  141.9392  161.1686 N.am    1  UNL1       -0.2795
     17 C         140.5578  141.2623  162.4717 C.3     1  UNL1        0.0935
     18 C         142.0410  141.3216  162.6879 C.3     1  UNL1        0.0233
     19 C         142.6516  142.0353  161.5183 C.3     1  UNL1        0.0233
     20 C         141.5459  142.4169  160.5793 C.3     1  UNL1        0.0935
     21 C         140.7340  137.0762  163.2692 C.3     1  UNL1        0.1007
     22 C         140.4482  137.9257  164.4719 C.ar    1  UNL1        0.0129
     23 C         139.1186  138.0753  165.1499 C.ar    1  UNL1        0.0176
     24 C         139.2905  139.0169  166.3048 C.ar    1  UNL1        0.0799
     25 N         140.7264  139.4493  166.3406 N.ar    1  UNL1       -0.3038
     26 C         141.4419  138.7749  165.2078 C.ar    1  UNL1        0.0772
     27 C         141.3392  140.3908  167.3346 C.ar    1  UNL1        0.0640
     28 C         142.5301  141.2174  166.9494 C.ar    1  UNL1        0.0175
     29 C         143.1429  142.1588  167.9434 C.ar    1  UNL1        0.0053
     30 C         142.5648  142.2737  169.3227 C.ar    1  UNL1        0.0715
     31 C         141.3738  141.4472  169.7080 C.ar    1  UNL1        0.0053
     32 C         140.7611  140.5057  168.7140 C.ar    1  UNL1        0.0175
     33 C         143.1775  143.2152  170.3167 C.3     1  UNL1        0.4186
     34 F         143.7904  144.1567  171.3107 F       1  UNL1       -0.1659
     35 F         141.8637  143.9259  170.4535 F       1  UNL1       -0.1659
     36 F         144.4915  142.5045  170.1800 F       1  UNL1       -0.1659
@<TRIPOS>BOND
     1     8     9    1
     2     9    12    1
     3    12    13    1
     4    13    14    1
     5    14    15    2
     6    14    16   am
     7    16    17    1
     8    17    18    1
     9    18    19    1
    10    19    20    1
    11     9    10   am
    12    10    11    2
    13    10     7    1
    14     7     1    1
    15     1     2    1
    16     2     3    1
    17     3     4    1
    18     4    21    1
    19    21    22    1
    20    22    23   ar
    21    23    24   ar
    22    24    25   ar
    23    25    27    1
    24    27    28   ar
    25    28    29   ar
    26    29    30   ar
    27    30    33    1
    28    33    34    1
    29    33    35    1
    30    33    36    1
    31    30    31   ar
    32    31    32   ar
    33    25    26   ar
    34     4     5    1
    35     5     6    1
    36    20    16    1
    37     6     1    1
    38    26    22   ar
    39    32    27   ar
