@<TRIPOS>MOLECULE
*****
 25 27 0 0 0
SMALL
GASTEIGER

@<TRIPOS>ATOM
      1 C         138.4813  139.1951  164.2133 C.ar    1  UNL1        0.0635
      2 N         138.7017  138.0739  163.2416 N.ar    1  UNL1       -0.2478
      3 C         138.7775  138.3599  161.7711 C.ar    1  UNL1        0.0985
      4 C         138.6329  139.7671  161.2723 C.ar    1  UNL1        0.0208
      5 C         138.4126  140.8883  162.2440 C.ar    1  UNL1        0.0059
      6 C         138.2680  142.2956  161.7452 C.ar    1  UNL1        0.0401
      7 C         138.0476  143.4168  162.7169 C.ar    1  UNL1        0.1724
      8 C         137.9718  143.1308  164.1875 C.ar    1  UNL1        0.1724
      9 C         138.1164  141.7236  164.6863 C.ar    1  UNL1        0.0412
     10 C         138.3368  140.6023  163.7145 C.ar    1  UNL1        0.0171
     11 O         137.9031  144.8240  162.2181 O.3     1  UNL1       -0.4684
     12 C         139.1154  145.6940  162.0658 C.3     1  UNL1        0.2526
     13 O         137.7515  144.2521  165.1592 O.3     1  UNL1       -0.4684
     14 C         138.9260  144.9406  165.7888 C.3     1  UNL1        0.2526
     15 C         138.4055  138.9091  165.6839 C.3     1  UNL1        0.0721
     16 C         141.7120  140.2731  168.4146 C.ar    1  UNL1        0.1724
     17 C         142.0368  139.7477  167.0477 C.ar    1  UNL1        0.0397
     18 C         140.9347  139.2931  166.1375 C.ar    1  UNL1       -0.0006
     19 C         139.5077  139.3638  166.5941 C.ar    1  UNL1       -0.0130
     20 C         139.1827  139.8892  167.9611 C.ar    1  UNL1        0.0362
     21 C         140.2849  140.3438  168.8713 C.ar    1  UNL1        0.1721
     22 C         143.3429  142.1276  169.2213 C.3     1  UNL1        0.2526
     23 O         142.8141  140.7277  169.3248 O.3     1  UNL1       -0.4684
     24 O         139.9600  140.8692  170.2382 O.3     1  UNL1       -0.4684
     25 C         139.7629  142.3412  170.4485 C.3     1  UNL1        0.2526
@<TRIPOS>BOND
     1    22    23    1
     2    23    16    1
     3    16    17   ar
     4    17    18   ar
     5    18    19   ar
     6    19    15    1
     7    15     1    1
     8     1     2   ar
     9     2     3   ar
    10     3     4   ar
    11     4     5   ar
    12     5     6   ar
    13     6     7   ar
    14     7    11    1
    15    11    12    1
    16     7     8   ar
    17     8    13    1
    18    13    14    1
    19     8     9   ar
    20     9    10   ar
    21    19    20   ar
    22    20    21   ar
    23    21    24    1
    24    24    25    1
    25    21    16   ar
    26    10     1   ar
    27    10     5   ar
@<TRIPOS>MOLECULE
*****
 25 27 0 0 0
SMALL
GASTEIGER

@<TRIPOS>ATOM
      1 C         139.8231  139.5682  165.0912 C.ar    1  UNL1        0.0635
      2 N         140.2707  138.5945  164.0417 N.ar    1  UNL1       -0.2478
      3 C         141.5754  137.8710  164.1976 C.ar    1  UNL1        0.0985
      4 C         142.4324  138.1212  165.4030 C.ar    1  UNL1        0.0208
      5 C         141.9848  139.0949  166.4524 C.ar    1  UNL1        0.0059
      6 C         142.8418  139.3451  167.6578 C.ar    1  UNL1        0.0401
      7 C         142.3942  140.3189  168.7073 C.ar    1  UNL1        0.1724
      8 C         141.0895  141.0424  168.5514 C.ar    1  UNL1        0.1724
      9 C         140.2324  140.7922  167.3461 C.ar    1  UNL1        0.0412
     10 C         140.6801  139.8184  166.2966 C.ar    1  UNL1        0.0171
     11 O         143.2512  140.5691  169.9126 O.3     1  UNL1       -0.4684
     12 C         143.9134  141.9021  170.0984 C.3     1  UNL1        0.2526
     13 O         140.6419  142.0162  169.6009 O.3     1  UNL1       -0.4684
     14 C         140.4282  143.4575  169.2445 C.3     1  UNL1        0.2526
     15 C         138.5183  140.2918  164.9354 C.3     1  UNL1        0.0721
     16 C         138.3858  144.2617  162.8207 C.ar    1  UNL1        0.1724
     17 C         138.5341  144.2112  164.3124 C.ar    1  UNL1        0.0397
     18 C         138.5782  142.8879  165.0173 C.ar    1  UNL1       -0.0006
     19 C         138.4742  141.6151  164.2305 C.ar    1  UNL1       -0.0130
     20 C         138.3259  141.6656  162.7386 C.ar    1  UNL1        0.0362
     21 C         138.2818  142.9889  162.0337 C.ar    1  UNL1        0.1721
     22 C         139.6171  146.2571  161.7015 C.3     1  UNL1        0.2526
     23 O         138.3417  145.5850  162.1158 O.3     1  UNL1       -0.4684
     24 O         138.1335  143.0395  160.5419 O.3     1  UNL1       -0.4684
     25 C         139.3520  143.0869  159.6684 C.3     1  UNL1        0.2526
@<TRIPOS>BOND
     1    22    23    1
     2    23    16    1
     3    16    17   ar
     4    17    18   ar
     5    18    19   ar
     6    19    15    1
     7    15     1    1
     8     1     2   ar
     9     2     3   ar
    10     3     4   ar
    11     4     5   ar
    12     5     6   ar
    13     6     7   ar
    14     7    11    1
    15    11    12    1
    16     7     8   ar
    17     8    13    1
    18    13    14    1
    19     8     9   ar
    20     9    10   ar
    21    19    20   ar
    22    20    21   ar
    23    21    24    1
    24    24    25    1
    25    21    16   ar
    26    10     1   ar
    27    10     5   ar
@<TRIPOS>MOLECULE
*****
 25 27 0 0 0
SMALL
GASTEIGER

@<TRIPOS>ATOM
      1 C         138.5237  139.0268  165.1297 C.ar    1  UNL1        0.0635
      2 N         138.9035  137.6968  164.5495 N.ar    1  UNL1       -0.2478
      3 C         139.2444  137.5837  163.0932 C.ar    1  UNL1        0.0985
      4 C         139.2055  138.8006  162.2170 C.ar    1  UNL1        0.0208
      5 C         138.8256  140.1306  162.7973 C.ar    1  UNL1        0.0059
      6 C         138.7867  141.3476  161.9212 C.ar    1  UNL1        0.0401
      7 C         138.4069  142.6776  162.5014 C.ar    1  UNL1        0.1724
      8 C         138.0659  142.7907  163.9578 C.ar    1  UNL1        0.1724
      9 C         138.1049  141.5738  164.8339 C.ar    1  UNL1        0.0412
     10 C         138.4847  140.2437  164.2536 C.ar    1  UNL1        0.0171
     11 O         138.3679  143.8945  161.6253 O.3     1  UNL1       -0.4684
     12 C         139.5701  144.7861  161.5262 C.3     1  UNL1        0.2526
     13 O         137.6861  144.1208  164.5380 O.3     1  UNL1       -0.4684
     14 C         138.6811  144.8970  165.3491 C.3     1  UNL1        0.2526
     15 C         138.1828  139.1399  166.5861 C.3     1  UNL1        0.0721
     16 C         141.1836  140.8453  169.4734 C.ar    1  UNL1        0.1724
     17 C         139.8056  140.4893  169.9470 C.ar    1  UNL1        0.0397
     18 C         138.8053  139.9209  168.9846 C.ar    1  UNL1       -0.0006
     19 C         139.1831  139.7084  167.5486 C.ar    1  UNL1       -0.0130
     20 C         140.5611  140.0644  167.0749 C.ar    1  UNL1        0.0362
     21 C         141.5614  140.6329  168.0373 C.ar    1  UNL1        0.1721
     22 C         142.5070  142.8782  170.4040 C.3     1  UNL1        0.2526
     23 O         142.1839  141.4138  170.4358 O.3     1  UNL1       -0.4684
     24 O         142.9394  140.9889  167.5638 O.3     1  UNL1       -0.4684
     25 C         143.1322  142.1246  166.6031 C.3     1  UNL1        0.2526
@<TRIPOS>BOND
     1    22    23    1
     2    23    16    1
     3    16    17   ar
     4    17    18   ar
     5    18    19   ar
     6    19    15    1
     7    15     1    1
     8     1     2   ar
     9     2     3   ar
    10     3     4   ar
    11     4     5   ar
    12     5     6   ar
    13     6     7   ar
    14     7    11    1
    15    11    12    1
    16     7     8   ar
    17     8    13    1
    18    13    14    1
    19     8     9   ar
    20     9    10   ar
    21    19    20   ar
    22    20    21   ar
    23    21    24    1
    24    24    25    1
    25    21    16   ar
    26    10     1   ar
    27    10     5   ar
@<TRIPOS>MOLECULE
*****
 25 27 0 0 0
SMALL
GASTEIGER

@<TRIPOS>ATOM
      1 C         139.4228  142.6350  165.3028 C.ar    1  UNL1        0.0635
      2 N         138.5040  141.8908  164.3799 N.ar    1  UNL1       -0.2478
      3 C         138.1233  140.4722  164.6839 C.ar    1  UNL1        0.0985
      4 C         138.6615  139.7978  165.9109 C.ar    1  UNL1        0.0208
      5 C         139.5803  140.5420  166.8339 C.ar    1  UNL1        0.0059
      6 C         140.1185  139.8675  168.0609 C.ar    1  UNL1        0.0401
      7 C         141.0373  140.6118  168.9838 C.ar    1  UNL1        0.1724
      8 C         141.4181  142.0305  168.6797 C.ar    1  UNL1        0.1724
      9 C         140.8799  142.7049  167.4527 C.ar    1  UNL1        0.0412
     10 C         139.9610  141.9606  166.5298 C.ar    1  UNL1        0.0171
     11 O         141.5755  139.9373  170.2108 O.3     1  UNL1       -0.4684
     12 C         142.5127  138.7739  170.0771 C.3     1  UNL1        0.2526
     13 O         142.3369  142.7747  169.6027 O.3     1  UNL1       -0.4684
     14 C         143.7781  142.3729  169.7108 C.3     1  UNL1        0.2526
     15 C         139.8035  144.0538  164.9988 C.3     1  UNL1        0.0721
     16 C         141.2013  145.1728  160.8703 C.ar    1  UNL1        0.1724
     17 C         139.8661  145.6455  161.3638 C.ar    1  UNL1        0.0397
     18 C         139.4001  145.2724  162.7400 C.ar    1  UNL1       -0.0006
     19 C         140.2695  144.4268  163.6226 C.ar    1  UNL1       -0.0130
     20 C         141.6048  143.9541  163.1291 C.ar    1  UNL1        0.0362
     21 C         142.0707  144.3271  161.7529 C.ar    1  UNL1        0.1721
     22 C         140.7150  145.4821  158.3370 C.3     1  UNL1        0.2526
     23 O         141.6673  145.5458  159.4942 O.3     1  UNL1       -0.4684
     24 O         143.4060  143.8544  161.2594 O.3     1  UNL1       -0.4684
     25 C         144.5157  143.5918  162.2339 C.3     1  UNL1        0.2526
@<TRIPOS>BOND
     1    22    23    1
     2    23    16    1
     3    16    17   ar
     4    17    18   ar
     5    18    19   ar
     6    19    15    1
     7    15     1    1
     8     1     2   ar
     9     2     3   ar
    10     3     4   ar
    11     4     5   ar
    12     5     6   ar
    13     6     7   ar
    14     7    11    1
    15    11    12    1
    16     7     8   ar
    17     8    13    1
    18    13    14    1
    19     8     9   ar
    20     9    10   ar
    21    19    20   ar
    22    20    21   ar
    23    21    24    1
    24    24    25    1
    25    21    16   ar
    26    10     1   ar
    27    10     5   ar
@<TRIPOS>MOLECULE
*****
 25 27 0 0 0
SMALL
GASTEIGER

@<TRIPOS>ATOM
      1 C         139.4177  140.1009  165.7508 C.ar    1  UNL1        0.0635
      2 N         138.3180  139.2323  166.2856 N.ar    1  UNL1       -0.2478
      3 C         138.2560  137.7823  165.9066 C.ar    1  UNL1        0.0985
      4 C         139.2938  137.2009  164.9928 C.ar    1  UNL1        0.0208
      5 C         140.3935  138.0695  164.4580 C.ar    1  UNL1        0.0059
      6 C         141.4313  137.4882  163.5442 C.ar    1  UNL1        0.0401
      7 C         142.5310  138.3568  163.0094 C.ar    1  UNL1        0.1724
      8 C         142.5930  139.8068  163.3883 C.ar    1  UNL1        0.1724
      9 C         141.5553  140.3882  164.3021 C.ar    1  UNL1        0.0412
     10 C         140.4555  139.5195  164.8370 C.ar    1  UNL1        0.0171
     11 O         143.5688  137.7754  162.0956 O.3     1  UNL1       -0.4684
     12 C         143.3403  137.7625  160.6132 C.3     1  UNL1        0.2526
     13 O         143.6928  140.6754  162.8535 O.3     1  UNL1       -0.4684
     14 C         145.0314  140.6925  163.5303 C.3     1  UNL1        0.2526
     15 C         139.4797  141.5509  166.1297 C.3     1  UNL1        0.0721
     16 C         138.9264  144.7235  162.9867 C.ar    1  UNL1        0.1724
     17 C         139.6463  145.0486  164.2619 C.ar    1  UNL1        0.0397
     18 C         139.8307  143.9910  165.3096 C.ar    1  UNL1       -0.0006
     19 C         139.2953  142.6085  165.0821 C.ar    1  UNL1       -0.0130
     20 C         138.5754  142.2834  163.8068 C.ar    1  UNL1        0.0362
     21 C         138.3910  143.3409  162.7591 C.ar    1  UNL1        0.1721
     22 C         139.8514  146.0843  160.9761 C.3     1  UNL1        0.2526
     23 O         138.7420  145.7811  161.9390 O.3     1  UNL1       -0.4684
     24 O         137.6711  143.0159  161.4840 O.3     1  UNL1       -0.4684
     25 C         138.4295  142.4593  160.3156 C.3     1  UNL1        0.2526
@<TRIPOS>BOND
     1    22    23    1
     2    23    16    1
     3    16    17   ar
     4    17    18   ar
     5    18    19   ar
     6    19    15    1
     7    15     1    1
     8     1     2   ar
     9     2     3   ar
    10     3     4   ar
    11     4     5   ar
    12     5     6   ar
    13     6     7   ar
    14     7    11    1
    15    11    12    1
    16     7     8   ar
    17     8    13    1
    18    13    14    1
    19     8     9   ar
    20     9    10   ar
    21    19    20   ar
    22    20    21   ar
    23    21    24    1
    24    24    25    1
    25    21    16   ar
    26    10     1   ar
    27    10     5   ar
@<TRIPOS>MOLECULE
*****
 25 27 0 0 0
SMALL
GASTEIGER

@<TRIPOS>ATOM
      1 C         143.5295  141.5922  165.0392 C.ar    1  UNL1        0.0635
      2 N         143.8729  140.4943  164.0766 N.ar    1  UNL1       -0.2478
      3 C         143.7469  139.0604  164.4984 C.ar    1  UNL1        0.0985
      4 C         143.2775  138.7244  165.8829 C.ar    1  UNL1        0.0208
      5 C         142.9341  139.8223  166.8455 C.ar    1  UNL1        0.0059
      6 C         142.4646  139.4862  168.2300 C.ar    1  UNL1        0.0401
      7 C         142.1212  140.5841  169.1926 C.ar    1  UNL1        0.1724
      8 C         142.2472  142.0181  168.7707 C.ar    1  UNL1        0.1724
      9 C         142.7166  142.3541  167.3863 C.ar    1  UNL1        0.0412
     10 C         143.0600  141.2562  166.4236 C.ar    1  UNL1        0.0171
     11 O         141.6517  140.2481  170.5770 O.3     1  UNL1       -0.4684
     12 C         140.1887  140.0577  170.8473 C.3     1  UNL1        0.2526
     13 O         141.9037  143.1160  169.7333 O.3     1  UNL1       -0.4684
     14 C         140.5176  143.6892  169.7538 C.3     1  UNL1        0.2526
     15 C         143.6555  143.0262  164.6173 C.3     1  UNL1        0.0721
     16 C         140.8003  144.7402  161.5907 C.ar    1  UNL1        0.1724
     17 C         142.1600  144.2756  161.1601 C.ar    1  UNL1        0.0397
     18 C         143.1117  143.7042  162.1690 C.ar    1  UNL1       -0.0006
     19 C         142.7038  143.5975  163.6085 C.ar    1  UNL1       -0.0130
     20 C         141.3441  144.0622  164.0392 C.ar    1  UNL1        0.0362
     21 C         140.3924  144.6336  163.0303 C.ar    1  UNL1        0.1721
     22 C         140.2445  145.3890  159.1372 C.3     1  UNL1        0.2526
     23 O         139.8486  145.3116  160.5819 O.3     1  UNL1       -0.4684
     24 O         139.0328  145.0982  163.4609 O.3     1  UNL1       -0.4684
     25 C         137.8434  144.2012  163.2860 C.3     1  UNL1        0.2526
@<TRIPOS>BOND
     1    22    23    1
     2    23    16    1
     3    16    17   ar
     4    17    18   ar
     5    18    19   ar
     6    19    15    1
     7    15     1    1
     8     1     2   ar
     9     2     3   ar
    10     3     4   ar
    11     4     5   ar
    12     5     6   ar
    13     6     7   ar
    14     7    11    1
    15    11    12    1
    16     7     8   ar
    17     8    13    1
    18    13    14    1
    19     8     9   ar
    20     9    10   ar
    21    19    20   ar
    22    20    21   ar
    23    21    24    1
    24    24    25    1
    25    21    16   ar
    26    10     1   ar
    27    10     5   ar
@<TRIPOS>MOLECULE
*****
 25 27 0 0 0
SMALL
GASTEIGER

@<TRIPOS>ATOM
      1 C         139.9772  139.7903  165.0327 C.ar    1  UNL1        0.0635
      2 N         140.4264  138.6542  164.1624 N.ar    1  UNL1       -0.2478
      3 C         141.6611  137.8801  164.5176 C.ar    1  UNL1        0.0985
      4 C         142.4466  138.2420  165.7431 C.ar    1  UNL1        0.0208
      5 C         141.9974  139.3781  166.6135 C.ar    1  UNL1        0.0059
      6 C         142.7829  139.7400  167.8391 C.ar    1  UNL1        0.0401
      7 C         142.3337  140.8760  168.7094 C.ar    1  UNL1        0.1724
      8 C         141.0989  141.6502  168.3543 C.ar    1  UNL1        0.1724
      9 C         140.3134  141.2883  167.1287 C.ar    1  UNL1        0.0412
     10 C         140.7627  140.1522  166.2583 C.ar    1  UNL1        0.0171
     11 O         143.1192  141.2379  169.9350 O.3     1  UNL1       -0.4684
     12 C         144.0495  142.4143  169.9093 C.3     1  UNL1        0.2526
     13 O         140.6497  142.7862  169.2246 O.3     1  UNL1       -0.4684
     14 C         139.8389  142.5121  170.4566 C.3     1  UNL1        0.2526
     15 C         138.7425  140.5644  164.6776 C.3     1  UNL1        0.0721
     16 C         139.0983  144.5248  162.5708 C.ar    1  UNL1        0.1724
     17 C         137.7443  143.9679  162.8972 C.ar    1  UNL1        0.0397
     18 C         137.6257  142.6478  163.5994 C.ar    1  UNL1       -0.0006
     19 C         138.8611  141.8846  163.9753 C.ar    1  UNL1       -0.0130
     20 C         140.2151  142.4415  163.6489 C.ar    1  UNL1        0.0362
     21 C         140.3337  143.7616  162.9466 C.ar    1  UNL1        0.1721
     22 C         139.9181  145.9302  160.5452 C.3     1  UNL1        0.2526
     23 O         139.2169  145.8450  161.8685 O.3     1  UNL1       -0.4684
     24 O         141.6877  144.3185  162.6202 O.3     1  UNL1       -0.4684
     25 C         142.3958  145.1964  163.6090 C.3     1  UNL1        0.2526
@<TRIPOS>BOND
     1    22    23    1
     2    23    16    1
     3    16    17   ar
     4    17    18   ar
     5    18    19   ar
     6    19    15    1
     7    15     1    1
     8     1     2   ar
     9     2     3   ar
    10     3     4   ar
    11     4     5   ar
    12     5     6   ar
    13     6     7   ar
    14     7    11    1
    15    11    12    1
    16     7     8   ar
    17     8    13    1
    18    13    14    1
    19     8     9   ar
    20     9    10   ar
    21    19    20   ar
    22    20    21   ar
    23    21    24    1
    24    24    25    1
    25    21    16   ar
    26    10     1   ar
    27    10     5   ar
@<TRIPOS>MOLECULE
*****
 25 27 0 0 0
SMALL
GASTEIGER

@<TRIPOS>ATOM
      1 C         142.2772  141.5324  165.3639 C.ar    1  UNL1        0.0635
      2 N         143.6966  141.8889  165.6928 N.ar    1  UNL1       -0.2478
      3 C         144.2645  143.2013  165.2400 C.ar    1  UNL1        0.0985
      4 C         143.4130  144.1572  164.4583 C.ar    1  UNL1        0.0208
      5 C         141.9936  143.8008  164.1294 C.ar    1  UNL1        0.0059
      6 C         141.1420  144.7568  163.3477 C.ar    1  UNL1        0.0401
      7 C         139.7226  144.4003  163.0188 C.ar    1  UNL1        0.1724
      8 C         139.1547  143.0879  163.4716 C.ar    1  UNL1        0.1724
      9 C         140.0062  142.1319  164.2533 C.ar    1  UNL1        0.0412
     10 C         141.4257  142.4884  164.5822 C.ar    1  UNL1        0.0171
     11 O         138.8711  145.3563  162.2372 O.3     1  UNL1       -0.4684
     12 C         139.5146  146.4187  161.3963 C.3     1  UNL1        0.2526
     13 O         137.7353  142.7314  163.1428 O.3     1  UNL1       -0.4684
     14 C         137.3939  141.3375  162.7062 C.3     1  UNL1        0.2526
     15 C         141.7093  140.2200  165.8167 C.3     1  UNL1        0.0721
     16 C         139.0331  140.0533  169.4306 C.ar    1  UNL1        0.1724
     17 C         138.5308  139.5700  168.1025 C.ar    1  UNL1        0.0397
     18 C         139.4229  139.6255  166.8978 C.ar    1  UNL1       -0.0006
     19 C         140.8172  140.1644  167.0213 C.ar    1  UNL1       -0.0130
     20 C         141.3196  140.6478  168.3495 C.ar    1  UNL1        0.0362
     21 C         140.4275  140.5923  169.5542 C.ar    1  UNL1        0.1721
     22 C         136.9787  139.0501  170.6647 C.3     1  UNL1        0.2526
     23 O         138.1411  139.9978  170.6352 O.3     1  UNL1       -0.4684
     24 O         140.9298  141.0757  170.8823 O.3     1  UNL1       -0.4684
     25 C         142.0595  142.0606  170.9436 C.3     1  UNL1        0.2526
@<TRIPOS>BOND
     1    22    23    1
     2    23    16    1
     3    16    17   ar
     4    17    18   ar
     5    18    19   ar
     6    19    15    1
     7    15     1    1
     8     1     2   ar
     9     2     3   ar
    10     3     4   ar
    11     4     5   ar
    12     5     6   ar
    13     6     7   ar
    14     7    11    1
    15    11    12    1
    16     7     8   ar
    17     8    13    1
    18    13    14    1
    19     8     9   ar
    20     9    10   ar
    21    19    20   ar
    22    20    21   ar
    23    21    24    1
    24    24    25    1
    25    21    16   ar
    26    10     1   ar
    27    10     5   ar
@<TRIPOS>MOLECULE
*****
 25 27 0 0 0
SMALL
GASTEIGER

@<TRIPOS>ATOM
      1 C         139.9745  138.2601  162.9012 C.ar    1  UNL1        0.0635
      2 N         141.0859  137.3471  162.4752 N.ar    1  UNL1       -0.2478
      3 C         141.9962  137.7472  161.3522 C.ar    1  UNL1        0.0985
      4 C         141.7953  139.0601  160.6552 C.ar    1  UNL1        0.0208
      5 C         140.6839  139.9730  161.0812 C.ar    1  UNL1        0.0059
      6 C         140.4830  141.2859  160.3842 C.ar    1  UNL1        0.0401
      7 C         139.3717  142.1989  160.8102 C.ar    1  UNL1        0.1724
      8 C         138.4612  141.7988  161.9332 C.ar    1  UNL1        0.1724
      9 C         138.6622  140.4859  162.6302 C.ar    1  UNL1        0.0412
     10 C         139.7736  139.5730  162.2042 C.ar    1  UNL1        0.0171
     11 O         139.1707  143.5118  160.1132 O.3     1  UNL1       -0.4684
     12 C         140.1847  144.6062  160.2682 C.3     1  UNL1        0.2526
     13 O         137.3499  142.7118  162.3592 O.3     1  UNL1       -0.4684
     14 C         137.6519  143.9248  163.1884 C.3     1  UNL1        0.2526
     15 C         139.0641  137.8600  164.0243 C.3     1  UNL1        0.0721
     16 C         139.3485  139.9443  168.0023 C.ar    1  UNL1        0.1724
     17 C         138.0994  139.2004  167.6329 C.ar    1  UNL1        0.0397
     18 C         138.0046  138.5057  166.3069 C.ar    1  UNL1       -0.0006
     19 C         139.1589  138.5548  165.3503 C.ar    1  UNL1       -0.0130
     20 C         140.4080  139.2987  165.7196 C.ar    1  UNL1        0.0362
     21 C         140.5028  139.9934  167.0457 C.ar    1  UNL1        0.1721
     22 C         139.9857  139.9084  170.5208 C.3     1  UNL1        0.2526
     23 O         139.4432  140.6390  169.3283 O.3     1  UNL1       -0.4684
     24 O         141.7519  140.7373  167.4150 O.3     1  UNL1       -0.4684
     25 C         142.8065  140.0668  168.2445 C.3     1  UNL1        0.2526
@<TRIPOS>BOND
     1    22    23    1
     2    23    16    1
     3    16    17   ar
     4    17    18   ar
     5    18    19   ar
     6    19    15    1
     7    15     1    1
     8     1     2   ar
     9     2     3   ar
    10     3     4   ar
    11     4     5   ar
    12     5     6   ar
    13     6     7   ar
    14     7    11    1
    15    11    12    1
    16     7     8   ar
    17     8    13    1
    18    13    14    1
    19     8     9   ar
    20     9    10   ar
    21    19    20   ar
    22    20    21   ar
    23    21    24    1
    24    24    25    1
    25    21    16   ar
    26    10     1   ar
    27    10     5   ar
