@<TRIPOS>MOLECULE
*****
 48 55 0 0 0
SMALL
GASTEIGER

@<TRIPOS>ATOM
      1 C         140.1965  144.1053  159.1913 C.ar    1  UNL1        0.0191
      2 C         139.3051  143.2753  158.3158 C.ar    1  UNL1        0.0013
      3 C         138.9700  143.7415  156.9301 C.ar    1  UNL1       -0.0029
      4 C         139.5261  145.0378  156.4198 C.ar    1  UNL1       -0.0061
      5 C         140.4175  145.8678  157.2953 C.ar    1  UNL1       -0.0029
      6 C         140.7526  145.4016  158.6811 C.ar    1  UNL1        0.0013
      7 C         140.7577  142.7551  165.9079 C.ar    1  UNL1        0.1335
      8 C         139.6431  143.7362  165.6958 C.ar    1  UNL1        0.0360
      9 C         139.3079  144.2025  164.3101 C.ar    1  UNL1        0.0251
     10 C         140.0874  143.6876  163.1364 C.ar    1  UNL1        0.1171
     11 N         139.7522  144.1539  161.7507 N.ar    1  UNL1       -0.2407
     12 C         140.5316  143.6391  160.5771 C.ar    1  UNL1        0.0989
     13 C         141.6463  142.6579  160.7892 C.ar    1  UNL1        0.1005
     14 N         141.9814  142.1916  162.1749 N.ar    1  UNL1       -0.2237
     15 C         141.2020  142.7065  163.3485 C.ar    1  UNL1        0.1814
     16 N         141.5371  142.2403  164.7342 N.ar    1  UNL1       -0.2104
     17 C         142.0984  140.8900  171.4508 C.3     1  UNL1        0.0897
     18 N         141.7632  141.3563  170.0651 N.3     1  UNL1       -0.2686
     19 C         142.4390  140.7327  168.8800 C.3     1  UNL1        0.0939
     20 C         142.1038  141.1990  167.4942 C.3     1  UNL1        0.1095
     21 N         141.0929  142.2888  167.2936 N.pl3   1  UNL1       -0.2903
     22 C         140.4171  142.9124  168.4787 C.3     1  UNL1        0.1095
     23 C         140.7523  142.4462  169.8645 C.3     1  UNL1        0.0939
     24 C         142.4257  142.1430  159.6156 C.ar    1  UNL1        0.0192
     25 C         142.0202  140.8614  158.9500 C.ar    1  UNL1        0.0015
     26 C         142.7997  140.3465  157.7764 C.ar    1  UNL1        0.0000
     27 C         143.9846  141.1133  157.2684 C.ar    1  UNL1        0.0000
     28 C         144.3901  142.3948  157.9340 C.ar    1  UNL1        0.0000
     29 C         143.6106  142.9097  159.1076 C.ar    1  UNL1        0.0015
     30 C         139.1910  145.5040  155.0341 C.3     1  UNL1        0.0991
     31 N         139.6138  146.8696  154.5794 N.3     1  UNL1       -0.2689
     32 C         140.6728  147.0151  153.5271 C.3     1  UNL1        0.0728
     33 C         141.0956  148.3805  153.0724 C.3     1  UNL1        0.0249
     34 C         140.4595  149.6004  153.6701 C.3     1  UNL1        0.0613
     35 C         139.4005  149.4548  154.7224 C.3     1  UNL1        0.0249
     36 C         138.9776  148.0894  155.1771 C.3     1  UNL1        0.0728
     37 C         140.8823  150.9659  153.2154 C.ar    1  UNL1        0.1396
     38 N         140.2112  151.7897  152.1566 N.ar    1  UNL1       -0.1335
     39 N         140.9646  153.0802  152.0265 N.ar    1  UNL1       -0.1277
     40 C         142.1013  153.0541  153.0050 C.ar    1  UNL1        0.1807
     41 N         142.0504  151.7473  153.7397 N.ar    1  UNL1       -0.3234
     42 H         142.6742  151.4540  154.4426 H       1  UNL1        0.1686
     43 C         143.1115  154.1434  153.2122 C.ar    1  UNL1        0.1169
     44 C         143.9187  154.1870  154.4757 C.ar    1  UNL1        0.0223
     45 C         144.9289  155.2763  154.6830 C.ar    1  UNL1        0.0032
     46 C         145.1318  156.3219  153.6268 C.ar    1  UNL1        0.0207
     47 C         144.3246  156.2782  152.3633 C.ar    1  UNL1        0.0989
     48 N         143.3144  155.1890  152.1560 N.ar    1  UNL1       -0.2407
@<TRIPOS>BOND
     1    17    18    1
     2    18    19    1
     3    19    20    1
     4    20    21    1
     5    21     7    1
     6     7     8   ar
     7     8     9   ar
     8     9    10   ar
     9    10    11   ar
    10    11    12   ar
    11    12     1    1
    12     1     2   ar
    13     2     3   ar
    14     3     4   ar
    15     4    30    1
    16    30    31    1
    17    31    32    1
    18    32    33    1
    19    33    34    1
    20    34    37    1
    21    37    38   ar
    22    38    39   ar
    23    39    40   ar
    24    40    43    1
    25    43    44   ar
    26    44    45   ar
    27    45    46   ar
    28    46    47   ar
    29    47    48   ar
    30    40    41   ar
    31    34    35    1
    32    35    36    1
    33     4     5   ar
    34     5     6   ar
    35    12    13   ar
    36    13    24    1
    37    24    25   ar
    38    25    26   ar
    39    26    27   ar
    40    27    28   ar
    41    28    29   ar
    42    13    14   ar
    43    14    15   ar
    44    15    16   ar
    45    21    22    1
    46    22    23    1
    47    23    18    1
    48    16     7   ar
    49    15    10   ar
    50     6     1   ar
    51    29    24   ar
    52    36    31    1
    53    41    37   ar
    54    48    43   ar
    55    41    42    1
@<TRIPOS>MOLECULE
*****
 48 55 0 0 0
SMALL
GASTEIGER

@<TRIPOS>ATOM
      1 C         141.1939  138.2662  157.0883 C.ar    1  UNL1        0.0191
      2 C         141.9513  139.4958  156.6827 C.ar    1  UNL1        0.0013
      3 C         141.5586  140.8344  157.2338 C.ar    1  UNL1       -0.0029
      4 C         140.4086  140.9435  158.1906 C.ar    1  UNL1       -0.0061
      5 C         139.6511  139.7140  158.5962 C.ar    1  UNL1       -0.0029
      6 C         140.0438  138.3753  158.0451 C.ar    1  UNL1        0.0013
      7 C         143.7832  132.0752  155.5995 C.ar    1  UNL1        0.1335
      8 C         144.4093  132.5775  156.8666 C.ar    1  UNL1        0.0360
      9 C         144.0167  133.9161  157.4178 C.ar    1  UNL1        0.0251
     10 C         142.9979  134.7525  156.7018 C.ar    1  UNL1        0.1171
     11 N         142.6053  136.0912  157.2531 N.ar    1  UNL1       -0.2407
     12 C         141.5865  136.9275  156.5371 C.ar    1  UNL1        0.0989
     13 C         140.9604  136.4252  155.2699 C.ar    1  UNL1        0.1005
     14 N         141.3531  135.0866  154.7187 N.ar    1  UNL1       -0.2237
     15 C         142.3718  134.2502  155.4347 C.ar    1  UNL1        0.1814
     16 N         142.7645  132.9116  154.8835 N.ar    1  UNL1       -0.2104
     17 C         145.3538  126.7206  153.3945 C.3     1  UNL1        0.0897
     18 N         144.9612  128.0592  153.9457 N.3     1  UNL1       -0.2686
     19 C         145.1395  128.3504  155.4064 C.3     1  UNL1        0.0939
     20 C         144.7468  129.6891  155.9576 C.3     1  UNL1        0.1095
     21 N         144.1759  130.7365  155.0482 N.pl3   1  UNL1       -0.2903
     22 C         143.9976  130.4453  153.5876 C.3     1  UNL1        0.1095
     23 C         144.3902  129.1067  153.0364 C.3     1  UNL1        0.0939
     24 C         139.9416  137.2616  154.5539 C.ar    1  UNL1        0.0192
     25 C         140.3682  138.1763  153.4443 C.ar    1  UNL1        0.0015
     26 C         139.3495  139.0127  152.7283 C.ar    1  UNL1        0.0000
     27 C         137.9041  138.9343  153.1220 C.ar    1  UNL1        0.0000
     28 C         137.4776  138.0196  154.2316 C.ar    1  UNL1        0.0000
     29 C         138.4964  137.1832  154.9476 C.ar    1  UNL1        0.0015
     30 C         140.0159  142.2821  158.7418 C.3     1  UNL1        0.0991
     31 N         140.0223  143.4904  157.8529 N.3     1  UNL1       -0.2689
     32 C         139.1608  143.5230  156.6254 C.3     1  UNL1        0.0728
     33 C         139.1671  144.7313  155.7365 C.3     1  UNL1        0.0249
     34 C         140.0350  145.9069  156.0752 C.3     1  UNL1        0.0613
     35 C         140.8965  145.8743  157.3027 C.3     1  UNL1        0.0249
     36 C         140.8901  144.6661  158.1915 C.3     1  UNL1        0.0728
     37 C         140.0414  147.1152  155.1863 C.ar    1  UNL1        0.1396
     38 N         140.6740  147.2083  153.8294 N.ar    1  UNL1       -0.1335
     39 N         140.4399  148.5931  153.3028 N.ar    1  UNL1       -0.1277
     40 C         139.6624  149.3560  154.3342 C.ar    1  UNL1        0.1807
     41 N         139.4161  148.4425  155.4982 N.ar    1  UNL1       -0.3234
     42 H         138.9296  148.6736  156.3223 H       1  UNL1        0.1686
     43 C         139.2106  150.7818  154.2214 C.ar    1  UNL1        0.1169
     44 C         138.8419  151.5516  155.4549 C.ar    1  UNL1        0.0223
     45 C         138.3901  152.9774  155.3420 C.ar    1  UNL1        0.0032
     46 C         138.3070  153.6335  153.9956 C.ar    1  UNL1        0.0207
     47 C         138.6757  152.8638  152.7621 C.ar    1  UNL1        0.0989
     48 N         139.1275  151.4379  152.8750 N.ar    1  UNL1       -0.2407
@<TRIPOS>BOND
     1    17    18    1
     2    18    19    1
     3    19    20    1
     4    20    21    1
     5    21     7    1
     6     7     8   ar
     7     8     9   ar
     8     9    10   ar
     9    10    11   ar
    10    11    12   ar
    11    12     1    1
    12     1     2   ar
    13     2     3   ar
    14     3     4   ar
    15     4    30    1
    16    30    31    1
    17    31    32    1
    18    32    33    1
    19    33    34    1
    20    34    37    1
    21    37    38   ar
    22    38    39   ar
    23    39    40   ar
    24    40    43    1
    25    43    44   ar
    26    44    45   ar
    27    45    46   ar
    28    46    47   ar
    29    47    48   ar
    30    40    41   ar
    31    34    35    1
    32    35    36    1
    33     4     5   ar
    34     5     6   ar
    35    12    13   ar
    36    13    24    1
    37    24    25   ar
    38    25    26   ar
    39    26    27   ar
    40    27    28   ar
    41    28    29   ar
    42    13    14   ar
    43    14    15   ar
    44    15    16   ar
    45    21    22    1
    46    22    23    1
    47    23    18    1
    48    16     7   ar
    49    15    10   ar
    50     6     1   ar
    51    29    24   ar
    52    36    31    1
    53    41    37   ar
    54    48    43   ar
    55    41    42    1
@<TRIPOS>MOLECULE
*****
 48 55 0 0 0
SMALL
GASTEIGER

@<TRIPOS>ATOM
      1 C         140.4399  138.6233  156.9368 C.ar    1  UNL1        0.0191
      2 C         140.5438  139.7818  155.9896 C.ar    1  UNL1        0.0013
      3 C         139.8077  141.0561  156.2797 C.ar    1  UNL1       -0.0029
      4 C         138.9677  141.1721  157.5170 C.ar    1  UNL1       -0.0061
      5 C         138.8638  140.0136  158.4642 C.ar    1  UNL1       -0.0029
      6 C         139.5999  138.7392  158.1741 C.ar    1  UNL1        0.0013
      7 C         142.9166  132.6242  154.6726 C.ar    1  UNL1        0.1335
      8 C         141.7129  132.9969  153.8590 C.ar    1  UNL1        0.0360
      9 C         140.9768  134.2712  154.1491 C.ar    1  UNL1        0.0251
     10 C         141.4445  135.1729  155.2528 C.ar    1  UNL1        0.1171
     11 N         140.7083  136.4473  155.5429 N.ar    1  UNL1       -0.2407
     12 C         141.1760  137.3489  156.6467 C.ar    1  UNL1        0.0989
     13 C         142.3797  136.9762  157.4604 C.ar    1  UNL1        0.1005
     14 N         143.1158  135.7019  157.1703 N.ar    1  UNL1       -0.2237
     15 C         142.6482  134.8002  156.0665 C.ar    1  UNL1        0.1814
     16 N         143.3842  133.5259  155.7764 N.ar    1  UNL1       -0.2104
     17 C         145.8611  127.5267  153.5124 C.3     1  UNL1        0.0897
     18 N         145.1250  128.8011  153.8024 N.3     1  UNL1       -0.2686
     19 C         144.3944  129.5122  152.7022 C.3     1  UNL1        0.0939
     20 C         143.6582  130.7866  152.9923 C.3     1  UNL1        0.1095
     21 N         143.6527  131.3498  154.3825 N.pl3   1  UNL1       -0.2903
     22 C         144.3834  130.6386  155.4827 C.3     1  UNL1        0.1095
     23 C         145.1195  129.3643  155.1927 C.3     1  UNL1        0.0939
     24 C         142.8474  137.8778  158.5642 C.ar    1  UNL1        0.0192
     25 C         143.3253  139.2642  158.2484 C.ar    1  UNL1        0.0015
     26 C         143.7930  140.1659  159.3522 C.ar    1  UNL1        0.0000
     27 C         143.7827  139.6811  160.7717 C.ar    1  UNL1        0.0000
     28 C         143.3048  138.2948  161.0874 C.ar    1  UNL1        0.0000
     29 C         142.8371  137.3932  159.9837 C.ar    1  UNL1        0.0015
     30 C         138.2316  142.4464  157.8071 C.3     1  UNL1        0.0991
     31 N         138.5924  143.7045  157.0741 N.3     1  UNL1       -0.2689
     32 C         137.7825  144.1406  155.8892 C.3     1  UNL1        0.0728
     33 C         138.1432  145.3985  155.1562 C.3     1  UNL1        0.0249
     34 C         139.3137  146.2204  155.6081 C.3     1  UNL1        0.0613
     35 C         140.1236  145.7843  156.7930 C.3     1  UNL1        0.0249
     36 C         139.7629  144.5264  157.5260 C.3     1  UNL1        0.0728
     37 C         139.6745  147.4785  154.8751 C.ar    1  UNL1        0.1396
     38 N         140.5080  147.5660  153.6311 N.ar    1  UNL1       -0.1335
     39 N         140.6136  149.0115  153.2446 N.ar    1  UNL1       -0.1277
     40 C         139.8454  149.8174  154.2498 C.ar    1  UNL1        0.1807
     41 N         139.2650  148.8700  155.2575 N.ar    1  UNL1       -0.3234
     42 H         138.7123  149.1179  156.0336 H       1  UNL1        0.1686
     43 C         139.6857  151.3089  154.2477 C.ar    1  UNL1        0.1169
     44 C         138.5340  151.9408  154.9717 C.ar    1  UNL1        0.0223
     45 C         138.3743  153.4323  154.9696 C.ar    1  UNL1        0.0032
     46 C         139.3663  154.2918  154.2434 C.ar    1  UNL1        0.0207
     47 C         140.5179  153.6598  153.5193 C.ar    1  UNL1        0.0989
     48 N         140.6776  152.1684  153.5215 N.ar    1  UNL1       -0.2407
@<TRIPOS>BOND
     1    17    18    1
     2    18    19    1
     3    19    20    1
     4    20    21    1
     5    21     7    1
     6     7     8   ar
     7     8     9   ar
     8     9    10   ar
     9    10    11   ar
    10    11    12   ar
    11    12     1    1
    12     1     2   ar
    13     2     3   ar
    14     3     4   ar
    15     4    30    1
    16    30    31    1
    17    31    32    1
    18    32    33    1
    19    33    34    1
    20    34    37    1
    21    37    38   ar
    22    38    39   ar
    23    39    40   ar
    24    40    43    1
    25    43    44   ar
    26    44    45   ar
    27    45    46   ar
    28    46    47   ar
    29    47    48   ar
    30    40    41   ar
    31    34    35    1
    32    35    36    1
    33     4     5   ar
    34     5     6   ar
    35    12    13   ar
    36    13    24    1
    37    24    25   ar
    38    25    26   ar
    39    26    27   ar
    40    27    28   ar
    41    28    29   ar
    42    13    14   ar
    43    14    15   ar
    44    15    16   ar
    45    21    22    1
    46    22    23    1
    47    23    18    1
    48    16     7   ar
    49    15    10   ar
    50     6     1   ar
    51    29    24   ar
    52    36    31    1
    53    41    37   ar
    54    48    43   ar
    55    41    42    1
@<TRIPOS>MOLECULE
*****
 48 55 0 0 0
SMALL
GASTEIGER

@<TRIPOS>ATOM
      1 C         141.2880  137.7555  156.6342 C.ar    1  UNL1        0.0191
      2 C         142.1537  138.9734  156.5025 C.ar    1  UNL1        0.0013
      3 C         141.7261  140.2685  157.1267 C.ar    1  UNL1       -0.0029
      4 C         140.4329  140.3458  157.8828 C.ar    1  UNL1       -0.0061
      5 C         139.5672  139.1280  158.0145 C.ar    1  UNL1       -0.0029
      6 C         139.9947  137.8328  157.3902 C.ar    1  UNL1        0.0013
      7 C         143.8676  131.6234  154.9042 C.ar    1  UNL1        0.1335
      8 C         144.3096  131.9671  156.2958 C.ar    1  UNL1        0.0360
      9 C         143.8821  133.2622  156.9201 C.ar    1  UNL1        0.0251
     10 C         143.0125  134.2137  156.1528 C.ar    1  UNL1        0.1171
     11 N         142.5850  135.5089  156.7772 N.ar    1  UNL1       -0.2407
     12 C         141.7155  136.4603  156.0099 C.ar    1  UNL1        0.0989
     13 C         141.2735  136.1166  154.6183 C.ar    1  UNL1        0.1005
     14 N         141.7010  134.8214  153.9940 N.ar    1  UNL1       -0.2237
     15 C         142.5706  133.8700  154.7612 C.ar    1  UNL1        0.1814
     16 N         142.9981  132.5748  154.1369 N.ar    1  UNL1       -0.2104
     17 C         145.5777  126.4428  152.4067 C.3     1  UNL1        0.0897
     18 N         145.1502  127.7379  153.0311 N.3     1  UNL1       -0.2686
     19 C         145.3289  127.9552  154.5045 C.3     1  UNL1        0.0939
     20 C         144.9013  129.2504  155.1288 C.3     1  UNL1        0.1095
     21 N         144.2952  130.3282  154.2798 N.pl3   1  UNL1       -0.2903
     22 C         144.1165  130.1109  152.8065 C.3     1  UNL1        0.1095
     23 C         144.5439  128.8158  152.1821 C.3     1  UNL1        0.0939
     24 C         140.4040  137.0680  153.8510 C.ar    1  UNL1        0.0192
     25 C         141.0278  138.1290  152.9935 C.ar    1  UNL1        0.0015
     26 C         140.1583  139.0805  152.2263 C.ar    1  UNL1        0.0000
     27 C         138.6649  138.9709  152.3165 C.ar    1  UNL1        0.0000
     28 C         138.0412  137.9099  153.1739 C.ar    1  UNL1        0.0000
     29 C         138.9107  136.9584  153.9411 C.ar    1  UNL1        0.0015
     30 C         140.0054  141.6410  158.5071 C.3     1  UNL1        0.0991
     31 N         140.1046  141.8264  159.9923 N.3     1  UNL1       -0.2689
     32 C         139.0864  142.6588  160.7138 C.3     1  UNL1        0.0728
     33 C         139.1856  142.8443  162.1990 C.3     1  UNL1        0.0249
     34 C         140.3028  142.1974  162.9626 C.3     1  UNL1        0.0613
     35 C         141.3210  141.3651  162.2411 C.3     1  UNL1        0.0249
     36 C         141.2218  141.1796  160.7559 C.3     1  UNL1        0.0728
     37 C         140.4020  142.3829  164.4478 C.ar    1  UNL1        0.1396
     38 N         139.7507  143.4734  165.2456 N.ar    1  UNL1       -0.1335
     39 N         140.1161  143.2749  166.6868 N.ar    1  UNL1       -0.1277
     40 C         140.9933  142.0616  166.7798 C.ar    1  UNL1        0.1807
     41 N         141.1700  141.5104  165.3960 N.ar    1  UNL1       -0.3234
     42 H         141.6974  140.7155  165.1527 H       1  UNL1        0.1686
     43 C         141.5892  141.4986  168.0359 C.ar    1  UNL1        0.1169
     44 C         142.8190  142.1213  168.6272 C.ar    1  UNL1        0.0223
     45 C         143.4149  141.5582  169.8833 C.ar    1  UNL1        0.0032
     46 C         142.7808  140.3724  170.5481 C.ar    1  UNL1        0.0207
     47 C         141.5510  139.7497  169.9568 C.ar    1  UNL1        0.0989
     48 N         140.9551  140.3128  168.7007 N.ar    1  UNL1       -0.2407
@<TRIPOS>BOND
     1    17    18    1
     2    18    19    1
     3    19    20    1
     4    20    21    1
     5    21     7    1
     6     7     8   ar
     7     8     9   ar
     8     9    10   ar
     9    10    11   ar
    10    11    12   ar
    11    12     1    1
    12     1     2   ar
    13     2     3   ar
    14     3     4   ar
    15     4    30    1
    16    30    31    1
    17    31    32    1
    18    32    33    1
    19    33    34    1
    20    34    37    1
    21    37    38   ar
    22    38    39   ar
    23    39    40   ar
    24    40    43    1
    25    43    44   ar
    26    44    45   ar
    27    45    46   ar
    28    46    47   ar
    29    47    48   ar
    30    40    41   ar
    31    34    35    1
    32    35    36    1
    33     4     5   ar
    34     5     6   ar
    35    12    13   ar
    36    13    24    1
    37    24    25   ar
    38    25    26   ar
    39    26    27   ar
    40    27    28   ar
    41    28    29   ar
    42    13    14   ar
    43    14    15   ar
    44    15    16   ar
    45    21    22    1
    46    22    23    1
    47    23    18    1
    48    16     7   ar
    49    15    10   ar
    50     6     1   ar
    51    29    24   ar
    52    36    31    1
    53    41    37   ar
    54    48    43   ar
    55    41    42    1
@<TRIPOS>MOLECULE
*****
 48 55 0 0 0
SMALL
GASTEIGER

@<TRIPOS>ATOM
      1 C         138.9034  140.2622  157.0051 C.ar    1  UNL1        0.0191
      2 C         139.5097  141.1677  158.0360 C.ar    1  UNL1        0.0013
      3 C         140.7832  140.7742  158.7239 C.ar    1  UNL1       -0.0029
      4 C         141.4505  139.4753  158.3811 C.ar    1  UNL1       -0.0061
      5 C         140.8443  138.5699  157.3503 C.ar    1  UNL1       -0.0029
      6 C         139.5708  138.9633  156.6623 C.ar    1  UNL1        0.0013
      7 C         132.4871  141.4300  154.8334 C.ar    1  UNL1        0.1335
      8 C         132.4383  140.6308  156.1018 C.ar    1  UNL1        0.0360
      9 C         133.7118  140.2373  156.7898 C.ar    1  UNL1        0.0251
     10 C         135.0341  140.6432  156.2094 C.ar    1  UNL1        0.1171
     11 N         136.3076  140.2497  156.8975 N.ar    1  UNL1       -0.2407
     12 C         137.6299  140.6556  156.3171 C.ar    1  UNL1        0.0989
     13 C         137.6787  141.4549  155.0487 C.ar    1  UNL1        0.1005
     14 N         136.4052  141.8483  154.3607 N.ar    1  UNL1       -0.2237
     15 C         135.0829  141.4425  154.9411 C.ar    1  UNL1        0.1814
     16 N         133.8094  141.8359  154.2531 N.ar    1  UNL1       -0.2104
     17 C         127.3930  143.0038  152.0814 C.3     1  UNL1        0.0897
     18 N         128.6665  142.6104  152.7693 N.3     1  UNL1       -0.2686
     19 C         129.9683  142.6653  152.0262 C.3     1  UNL1        0.0939
     20 C         131.2419  142.2719  152.7143 C.3     1  UNL1        0.1095
     21 N         131.2136  141.8235  154.1454 N.pl3   1  UNL1       -0.2903
     22 C         129.9117  141.7686  154.8885 C.3     1  UNL1        0.1095
     23 C         128.6382  142.1620  154.2005 C.3     1  UNL1        0.0939
     24 C         139.0010  141.8607  154.4683 C.ar    1  UNL1        0.0192
     25 C         139.6299  143.1613  154.8723 C.ar    1  UNL1        0.0015
     26 C         140.9522  143.5671  154.2920 C.ar    1  UNL1        0.0000
     27 C         141.6456  142.6724  153.3076 C.ar    1  UNL1        0.0000
     28 C         141.0166  141.3720  152.9037 C.ar    1  UNL1        0.0000
     29 C         139.6943  140.9662  153.4840 C.ar    1  UNL1        0.0015
     30 C         142.7240  139.0819  159.0691 C.3     1  UNL1        0.0991
     31 N         142.8005  139.0897  160.5672 N.3     1  UNL1       -0.2689
     32 C         141.9130  138.1837  161.3682 C.3     1  UNL1        0.0728
     33 C         141.9895  138.1914  162.8662 C.3     1  UNL1        0.0249
     34 C         142.9535  139.1051  163.5632 C.3     1  UNL1        0.0613
     35 C         143.8410  140.0111  162.7622 C.3     1  UNL1        0.0249
     36 C         143.7645  140.0034  161.2642 C.3     1  UNL1        0.0728
     37 C         143.0300  139.1129  165.0613 C.ar    1  UNL1        0.1396
     38 N         143.5960  138.0217  165.9209 N.ar    1  UNL1       -0.1335
     39 N         143.4697  138.4477  167.3535 N.ar    1  UNL1       -0.1277
     40 C         142.8256  139.8021  167.3794 C.ar    1  UNL1        0.1807
     41 N         142.5539  140.2132  165.9627 N.ar    1  UNL1       -0.3234
     42 H         142.1363  141.0571  165.6750 H       1  UNL1        0.1686
     43 C         142.5089  140.6046  168.6065 C.ar    1  UNL1        0.1169
     44 C         142.9757  142.0260  168.7142 C.ar    1  UNL1        0.0223
     45 C         142.6590  142.8284  169.9413 C.ar    1  UNL1        0.0032
     46 C         141.8756  142.2094  171.0607 C.ar    1  UNL1        0.0207
     47 C         141.4089  140.7879  170.9531 C.ar    1  UNL1        0.0989
     48 N         141.7255  139.9855  169.7260 N.ar    1  UNL1       -0.2407
@<TRIPOS>BOND
     1    17    18    1
     2    18    19    1
     3    19    20    1
     4    20    21    1
     5    21     7    1
     6     7     8   ar
     7     8     9   ar
     8     9    10   ar
     9    10    11   ar
    10    11    12   ar
    11    12     1    1
    12     1     2   ar
    13     2     3   ar
    14     3     4   ar
    15     4    30    1
    16    30    31    1
    17    31    32    1
    18    32    33    1
    19    33    34    1
    20    34    37    1
    21    37    38   ar
    22    38    39   ar
    23    39    40   ar
    24    40    43    1
    25    43    44   ar
    26    44    45   ar
    27    45    46   ar
    28    46    47   ar
    29    47    48   ar
    30    40    41   ar
    31    34    35    1
    32    35    36    1
    33     4     5   ar
    34     5     6   ar
    35    12    13   ar
    36    13    24    1
    37    24    25   ar
    38    25    26   ar
    39    26    27   ar
    40    27    28   ar
    41    28    29   ar
    42    13    14   ar
    43    14    15   ar
    44    15    16   ar
    45    21    22    1
    46    22    23    1
    47    23    18    1
    48    16     7   ar
    49    15    10   ar
    50     6     1   ar
    51    29    24   ar
    52    36    31    1
    53    41    37   ar
    54    48    43   ar
    55    41    42    1
@<TRIPOS>MOLECULE
*****
 48 55 0 0 0
SMALL
GASTEIGER

@<TRIPOS>ATOM
      1 C         141.8657  139.4611  159.2710 C.ar    1  UNL1        0.0191
      2 C         140.9455  138.5171  158.5552 C.ar    1  UNL1        0.0013
      3 C         141.3090  138.0034  157.1936 C.ar    1  UNL1       -0.0029
      4 C         142.5927  138.4336  156.5477 C.ar    1  UNL1       -0.0061
      5 C         143.5129  139.3775  157.2634 C.ar    1  UNL1       -0.0029
      6 C         143.1494  139.8913  158.6251 C.ar    1  UNL1        0.0013
      7 C         140.8313  140.7577  165.9416 C.ar    1  UNL1        0.1335
      8 C         141.6142  139.4857  165.8044 C.ar    1  UNL1        0.0360
      9 C         141.9777  138.9720  164.4428 C.ar    1  UNL1        0.0251
     10 C         141.5582  139.7303  163.2185 C.ar    1  UNL1        0.1171
     11 N         141.9218  139.2165  161.8569 N.ar    1  UNL1       -0.2407
     12 C         141.5023  139.9748  160.6325 C.ar    1  UNL1        0.0989
     13 C         140.7192  141.2469  160.7698 C.ar    1  UNL1        0.1005
     14 N         140.3558  141.7606  162.1314 N.ar    1  UNL1       -0.2237
     15 C         140.7752  141.0023  163.3557 C.ar    1  UNL1        0.1814
     16 N         140.4118  141.5160  164.7173 N.ar    1  UNL1       -0.2104
     17 C         139.3772  142.8128  171.3880 C.3     1  UNL1        0.0897
     18 N         139.7407  142.2990  170.0264 N.3     1  UNL1       -0.2686
     19 C         139.4959  140.8609  169.6775 C.3     1  UNL1        0.0939
     20 C         139.8594  140.3471  168.3159 C.3     1  UNL1        0.1095
     21 N         140.4677  141.2715  167.3033 N.pl3   1  UNL1       -0.2903
     22 C         140.7126  142.7096  167.6522 C.3     1  UNL1        0.1095
     23 C         140.3491  143.2234  169.0137 C.3     1  UNL1        0.0939
     24 C         140.2997  142.0052  159.5455 C.ar    1  UNL1        0.0192
     25 C         141.2235  143.0191  158.9381 C.ar    1  UNL1        0.0015
     26 C         140.8040  143.7774  157.7137 C.ar    1  UNL1        0.0000
     27 C         139.4608  143.5218  157.0968 C.ar    1  UNL1        0.0000
     28 C         138.5371  142.5079  157.7042 C.ar    1  UNL1        0.0000
     29 C         138.9566  141.7496  158.9285 C.ar    1  UNL1        0.0015
     30 C         142.9562  137.9199  155.1862 C.3     1  UNL1        0.0991
     31 N         142.7263  136.4779  154.8426 N.3     1  UNL1       -0.2689
     32 C         143.3133  135.3990  155.7035 C.3     1  UNL1        0.0728
     33 C         143.0835  133.9571  155.3600 C.3     1  UNL1        0.0249
     34 C         142.2666  133.5941  154.1555 C.3     1  UNL1        0.0613
     35 C         141.6796  134.6731  153.2945 C.3     1  UNL1        0.0249
     36 C         141.9094  136.1150  153.6380 C.3     1  UNL1        0.0728
     37 C         142.0367  132.1522  153.8119 C.ar    1  UNL1        0.1396
     38 N         142.8764  131.3214  152.8874 N.ar    1  UNL1       -0.1335
     39 N         142.2855  129.9437  152.8366 N.ar    1  UNL1       -0.1277
     40 C         141.0804  129.9230  153.7297 C.ar    1  UNL1        0.1807
     41 N         140.9267  131.2879  154.3324 N.ar    1  UNL1       -0.3234
     42 H         140.2212  131.5675  154.9596 H       1  UNL1        0.1686
     43 C         140.1861  128.7443  153.9767 C.ar    1  UNL1        0.1169
     44 C         139.7739  128.3959  155.3762 C.ar    1  UNL1        0.0223
     45 C         138.8796  127.2172  155.6232 C.ar    1  UNL1        0.0032
     46 C         138.3976  126.3870  154.4706 C.ar    1  UNL1        0.0207
     47 C         138.8099  126.7354  153.0711 C.ar    1  UNL1        0.0989
     48 N         139.7041  127.9140  152.8241 N.ar    1  UNL1       -0.2407
@<TRIPOS>BOND
     1    17    18    1
     2    18    19    1
     3    19    20    1
     4    20    21    1
     5    21     7    1
     6     7     8   ar
     7     8     9   ar
     8     9    10   ar
     9    10    11   ar
    10    11    12   ar
    11    12     1    1
    12     1     2   ar
    13     2     3   ar
    14     3     4   ar
    15     4    30    1
    16    30    31    1
    17    31    32    1
    18    32    33    1
    19    33    34    1
    20    34    37    1
    21    37    38   ar
    22    38    39   ar
    23    39    40   ar
    24    40    43    1
    25    43    44   ar
    26    44    45   ar
    27    45    46   ar
    28    46    47   ar
    29    47    48   ar
    30    40    41   ar
    31    34    35    1
    32    35    36    1
    33     4     5   ar
    34     5     6   ar
    35    12    13   ar
    36    13    24    1
    37    24    25   ar
    38    25    26   ar
    39    26    27   ar
    40    27    28   ar
    41    28    29   ar
    42    13    14   ar
    43    14    15   ar
    44    15    16   ar
    45    21    22    1
    46    22    23    1
    47    23    18    1
    48    16     7   ar
    49    15    10   ar
    50     6     1   ar
    51    29    24   ar
    52    36    31    1
    53    41    37   ar
    54    48    43   ar
    55    41    42    1
@<TRIPOS>MOLECULE
*****
 48 55 0 0 0
SMALL
GASTEIGER

@<TRIPOS>ATOM
      1 C         140.8122  141.2763  164.4660 C.ar    1  UNL1        0.0191
      2 C         141.6992  140.4150  163.6165 C.ar    1  UNL1        0.0013
      3 C         142.5534  141.0379  162.5525 C.ar    1  UNL1       -0.0029
      4 C         142.5208  142.5221  162.3379 C.ar    1  UNL1       -0.0061
      5 C         141.6339  143.3834  163.1873 C.ar    1  UNL1       -0.0029
      6 C         140.7796  142.7605  164.2514 C.ar    1  UNL1        0.0013
      7 C         137.6979  139.0355  170.1695 C.ar    1  UNL1        0.1335
      8 C         138.8550  139.9096  170.5530 C.ar    1  UNL1        0.0360
      9 C         139.7093  140.5325  169.4890 C.ar    1  UNL1        0.0251
     10 C         139.4065  140.2814  168.0415 C.ar    1  UNL1        0.1171
     11 N         140.2608  140.9044  166.9775 N.ar    1  UNL1       -0.2407
     12 C         139.9579  140.6533  165.5300 C.ar    1  UNL1        0.0989
     13 C         138.8008  139.7792  165.1465 C.ar    1  UNL1        0.1005
     14 N         137.9465  139.1563  166.2105 N.ar    1  UNL1       -0.2237
     15 C         138.2494  139.4074  167.6580 C.ar    1  UNL1        0.1814
     16 N         137.3951  138.7844  168.7220 N.ar    1  UNL1       -0.2104
     17 C         134.2808  136.5436  174.4255 C.3     1  UNL1        0.0897
     18 N         135.1350  137.1666  173.3615 N.3     1  UNL1       -0.2686
     19 C         134.6660  138.4013  172.6506 C.3     1  UNL1        0.0939
     20 C         135.5204  139.0243  171.5866 C.3     1  UNL1        0.1095
     21 N         136.8436  138.4126  171.2335 N.pl3   1  UNL1       -0.2903
     22 C         137.3126  137.1778  171.9444 C.3     1  UNL1        0.1095
     23 C         136.4583  136.5548  173.0084 C.3     1  UNL1        0.0939
     24 C         138.4979  139.5281  163.6990 C.ar    1  UNL1        0.0192
     25 C         138.8944  138.2280  163.0644 C.ar    1  UNL1        0.0015
     26 C         138.5915  137.9769  161.6169 C.ar    1  UNL1        0.0000
     27 C         137.8922  139.0259  160.8040 C.ar    1  UNL1        0.0000
     28 C         137.4959  140.3259  161.4386 C.ar    1  UNL1        0.0000
     29 C         137.7987  140.5770  162.8861 C.ar    1  UNL1        0.0015
     30 C         143.3750  143.1451  161.2739 C.3     1  UNL1        0.0991
     31 N         142.7360  143.7678  160.0681 N.3     1  UNL1       -0.2689
     32 C         143.2072  143.3960  158.6934 C.3     1  UNL1        0.0728
     33 C         142.5682  144.0187  157.4876 C.3     1  UNL1        0.0249
     34 C         141.4581  145.0132  157.6565 C.3     1  UNL1        0.0613
     35 C         140.9870  145.3850  159.0312 C.3     1  UNL1        0.0249
     36 C         141.6259  144.7623  160.2370 C.3     1  UNL1        0.0728
     37 C         140.8191  145.6359  156.4507 C.ar    1  UNL1        0.1396
     38 N         140.1011  144.9035  155.3562 N.ar    1  UNL1       -0.1335
     39 N         139.6241  145.9153  154.3568 N.ar    1  UNL1       -0.1277
     40 C         140.0474  147.2731  154.8337 C.ar    1  UNL1        0.1807
     41 N         140.7859  147.1004  156.1278 N.ar    1  UNL1       -0.3234
     42 H         141.1798  147.8216  156.6700 H       1  UNL1        0.1686
     43 C         139.7793  148.5750  154.1385 C.ar    1  UNL1        0.1169
     44 C         139.2565  149.7465  154.9158 C.ar    1  UNL1        0.0223
     45 C         138.9883  151.0483  154.2207 C.ar    1  UNL1        0.0032
     46 C         139.2430  151.1786  152.7482 C.ar    1  UNL1        0.0207
     47 C         139.7658  150.0071  151.9709 C.ar    1  UNL1        0.0989
     48 N         140.0339  148.7053  152.6660 N.ar    1  UNL1       -0.2407
@<TRIPOS>BOND
     1    17    18    1
     2    18    19    1
     3    19    20    1
     4    20    21    1
     5    21     7    1
     6     7     8   ar
     7     8     9   ar
     8     9    10   ar
     9    10    11   ar
    10    11    12   ar
    11    12     1    1
    12     1     2   ar
    13     2     3   ar
    14     3     4   ar
    15     4    30    1
    16    30    31    1
    17    31    32    1
    18    32    33    1
    19    33    34    1
    20    34    37    1
    21    37    38   ar
    22    38    39   ar
    23    39    40   ar
    24    40    43    1
    25    43    44   ar
    26    44    45   ar
    27    45    46   ar
    28    46    47   ar
    29    47    48   ar
    30    40    41   ar
    31    34    35    1
    32    35    36    1
    33     4     5   ar
    34     5     6   ar
    35    12    13   ar
    36    13    24    1
    37    24    25   ar
    38    25    26   ar
    39    26    27   ar
    40    27    28   ar
    41    28    29   ar
    42    13    14   ar
    43    14    15   ar
    44    15    16   ar
    45    21    22    1
    46    22    23    1
    47    23    18    1
    48    16     7   ar
    49    15    10   ar
    50     6     1   ar
    51    29    24   ar
    52    36    31    1
    53    41    37   ar
    54    48    43   ar
    55    41    42    1
@<TRIPOS>MOLECULE
*****
 48 55 0 0 0
SMALL
GASTEIGER

@<TRIPOS>ATOM
      1 C         141.0313  138.8329  158.9533 C.ar    1  UNL1        0.0191
      2 C         139.7772  138.2778  158.3459 C.ar    1  UNL1        0.0013
      3 C         139.7808  137.7983  156.9246 C.ar    1  UNL1       -0.0029
      4 C         141.0385  137.8739  156.1108 C.ar    1  UNL1       -0.0061
      5 C         142.2926  138.4290  156.7181 C.ar    1  UNL1       -0.0029
      6 C         142.2891  138.9086  158.1395 C.ar    1  UNL1        0.0013
      7 C         141.4556  139.8331  165.7408 C.ar    1  UNL1        0.1335
      8 C         141.8978  138.4358  165.4218 C.ar    1  UNL1        0.0360
      9 C         141.9014  137.9563  164.0006 C.ar    1  UNL1        0.0251
     10 C         141.4628  138.8741  162.8983 C.ar    1  UNL1        0.1171
     11 N         141.4664  138.3946  161.4769 N.ar    1  UNL1       -0.2407
     12 C         141.0278  139.3124  160.3746 C.ar    1  UNL1        0.0989
     13 C         140.5855  140.7099  160.6936 C.ar    1  UNL1        0.1005
     14 N         140.5819  141.1894  162.1149 N.ar    1  UNL1       -0.2237
     15 C         141.0205  140.2715  163.2172 C.ar    1  UNL1        0.1814
     16 N         141.0169  140.7510  164.6384 N.ar    1  UNL1       -0.2104
     17 C         141.4412  141.7513  171.4259 C.3     1  UNL1        0.0897
     18 N         141.4448  141.2718  170.0047 N.3     1  UNL1       -0.2686
     19 C         140.3041  141.6170  169.0938 C.3     1  UNL1        0.0939
     20 C         140.3077  141.1374  167.6725 C.3     1  UNL1        0.1095
     21 N         141.4520  140.3127  167.1621 N.pl3   1  UNL1       -0.2903
     22 C         142.5926  139.9675  168.0730 C.3     1  UNL1        0.1095
     23 C         142.5891  140.4470  169.4942 C.3     1  UNL1        0.0939
     24 C         140.1469  141.6277  159.5913 C.ar    1  UNL1        0.0192
     25 C         138.6982  141.7022  159.2091 C.ar    1  UNL1        0.0015
     26 C         138.2596  142.6201  158.1068 C.ar    1  UNL1        0.0000
     27 C         139.2696  143.4635  157.3866 C.ar    1  UNL1        0.0000
     28 C         140.7182  143.3890  157.7687 C.ar    1  UNL1        0.0000
     29 C         141.1568  142.4711  158.8711 C.ar    1  UNL1        0.0015
     30 C         141.0421  137.3944  154.6895 C.3     1  UNL1        0.0991
     31 N         141.4736  135.9934  154.3717 N.3     1  UNL1       -0.2689
     32 C         141.8228  135.0463  155.4812 C.3     1  UNL1        0.0728
     33 C         142.2543  133.6453  155.1635 C.3     1  UNL1        0.0249
     34 C         142.3366  133.1914  153.7362 C.3     1  UNL1        0.0613
     35 C         141.9873  134.1385  152.6267 C.3     1  UNL1        0.0249
     36 C         141.5558  135.5394  152.9444 C.3     1  UNL1        0.0728
     37 C         142.7681  131.7903  153.4184 C.ar    1  UNL1        0.1396
     38 N         142.1960  130.9139  152.3439 N.ar    1  UNL1       -0.1335
     39 N         142.9218  129.6017  152.3808 N.ar    1  UNL1       -0.1277
     40 C         143.9424  129.6671  153.4781 C.ar    1  UNL1        0.1807
     41 N         143.8474  131.0198  154.1194 N.ar    1  UNL1       -0.3234
     42 H         144.3969  131.3448  154.8688 H       1  UNL1        0.1686
     43 C         144.8914  128.5722  153.8660 C.ar    1  UNL1        0.1169
     44 C         145.0678  128.2095  155.3108 C.ar    1  UNL1        0.0223
     45 C         146.0168  127.1145  155.6987 C.ar    1  UNL1        0.0032
     46 C         146.7894  126.3823  154.6418 C.ar    1  UNL1        0.0207
     47 C         146.6130  126.7449  153.1971 C.ar    1  UNL1        0.0989
     48 N         145.6640  127.8399  152.8092 N.ar    1  UNL1       -0.2407
@<TRIPOS>BOND
     1    17    18    1
     2    18    19    1
     3    19    20    1
     4    20    21    1
     5    21     7    1
     6     7     8   ar
     7     8     9   ar
     8     9    10   ar
     9    10    11   ar
    10    11    12   ar
    11    12     1    1
    12     1     2   ar
    13     2     3   ar
    14     3     4   ar
    15     4    30    1
    16    30    31    1
    17    31    32    1
    18    32    33    1
    19    33    34    1
    20    34    37    1
    21    37    38   ar
    22    38    39   ar
    23    39    40   ar
    24    40    43    1
    25    43    44   ar
    26    44    45   ar
    27    45    46   ar
    28    46    47   ar
    29    47    48   ar
    30    40    41   ar
    31    34    35    1
    32    35    36    1
    33     4     5   ar
    34     5     6   ar
    35    12    13   ar
    36    13    24    1
    37    24    25   ar
    38    25    26   ar
    39    26    27   ar
    40    27    28   ar
    41    28    29   ar
    42    13    14   ar
    43    14    15   ar
    44    15    16   ar
    45    21    22    1
    46    22    23    1
    47    23    18    1
    48    16     7   ar
    49    15    10   ar
    50     6     1   ar
    51    29    24   ar
    52    36    31    1
    53    41    37   ar
    54    48    43   ar
    55    41    42    1
@<TRIPOS>MOLECULE
*****
 48 55 0 0 0
SMALL
GASTEIGER

@<TRIPOS>ATOM
      1 C         140.2013  142.8923  159.2468 C.ar    1  UNL1        0.0191
      2 C         138.8776  142.8381  158.5432 C.ar    1  UNL1        0.0013
      3 C         138.7735  143.2597  157.1075 C.ar    1  UNL1       -0.0029
      4 C         139.9931  143.7356  156.3753 C.ar    1  UNL1       -0.0061
      5 C         141.3167  143.7899  157.0788 C.ar    1  UNL1       -0.0029
      6 C         141.4209  143.3682  158.5146 C.ar    1  UNL1        0.0013
      7 C         140.3608  142.1994  166.0837 C.ar    1  UNL1        0.1335
      8 C         139.9999  143.6147  165.7420 C.ar    1  UNL1        0.0360
      9 C         139.8959  144.0363  164.3063 C.ar    1  UNL1        0.0251
     10 C         140.1526  143.0427  163.2123 C.ar    1  UNL1        0.1171
     11 N         140.0486  143.4644  161.7765 N.ar    1  UNL1       -0.2407
     12 C         140.3053  142.4707  160.6825 C.ar    1  UNL1        0.0989
     13 C         140.6662  141.0554  161.0243 C.ar    1  UNL1        0.1005
     14 N         140.7703  140.6338  162.4601 N.ar    1  UNL1       -0.2237
     15 C         140.5135  141.6274  163.5540 C.ar    1  UNL1        0.1814
     16 N         140.6175  141.2058  164.9898 N.ar    1  UNL1       -0.2104
     17 C         140.7771  140.5129  171.8268 C.3     1  UNL1        0.0897
     18 N         140.6730  140.9345  170.3911 N.3     1  UNL1       -0.2686
     19 C         140.5842  139.8987  169.3098 C.3     1  UNL1        0.0939
     20 C         140.4802  140.3203  167.8740 C.3     1  UNL1        0.1095
     21 N         140.4648  141.7778  167.5195 N.pl3   1  UNL1       -0.2903
     22 C         140.5536  142.8136  168.6009 C.3     1  UNL1        0.1095
     23 C         140.6577  142.3920  170.0366 C.3     1  UNL1        0.0939
     24 C         140.9230  140.0618  159.9304 C.ar    1  UNL1        0.0192
     25 C         142.3276  139.7867  159.4816 C.ar    1  UNL1        0.0015
     26 C         142.5844  138.7930  158.3876 C.ar    1  UNL1        0.0000
     27 C         141.4365  138.0745  157.7424 C.ar    1  UNL1        0.0000
     28 C         140.0320  138.3497  158.1912 C.ar    1  UNL1        0.0000
     29 C         139.7752  139.3433  159.2852 C.ar    1  UNL1        0.0015
     30 C         139.8890  144.1572  154.9395 C.3     1  UNL1        0.0991
     31 N         139.8735  145.6147  154.5851 N.3     1  UNL1       -0.2689
     32 C         140.7510  146.1276  153.4819 C.3     1  UNL1        0.0728
     33 C         140.7354  147.5850  153.1274 C.3     1  UNL1        0.0249
     34 C         139.8424  148.5295  153.8761 C.3     1  UNL1        0.0613
     35 C         138.9650  148.0165  154.9792 C.3     1  UNL1        0.0249
     36 C         138.9805  146.5591  155.3337 C.3     1  UNL1        0.0728
     37 C         139.8269  149.9870  153.5216 C.ar    1  UNL1        0.1396
     38 N         140.5571  150.6237  152.3765 N.ar    1  UNL1       -0.1335
     39 N         140.2599  152.0938  152.3972 N.ar    1  UNL1       -0.1277
     40 C         139.3459  152.3657  153.5552 C.ar    1  UNL1        0.1807
     41 N         139.0783  151.0636  154.2501 N.ar    1  UNL1       -0.3234
     42 H         138.5110  150.9376  155.0448 H       1  UNL1        0.1686
     43 C         138.7961  153.7045  153.9491 C.ar    1  UNL1        0.1169
     44 C         138.2827  154.6432  152.8978 C.ar    1  UNL1        0.0223
     45 C         137.7329  155.9820  153.2917 C.ar    1  UNL1        0.0032
     46 C         137.6966  156.3822  154.7369 C.ar    1  UNL1        0.0207
     47 C         138.2101  155.4436  155.7882 C.ar    1  UNL1        0.0989
     48 N         138.7598  154.1047  155.3943 N.ar    1  UNL1       -0.2407
@<TRIPOS>BOND
     1    17    18    1
     2    18    19    1
     3    19    20    1
     4    20    21    1
     5    21     7    1
     6     7     8   ar
     7     8     9   ar
     8     9    10   ar
     9    10    11   ar
    10    11    12   ar
    11    12     1    1
    12     1     2   ar
    13     2     3   ar
    14     3     4   ar
    15     4    30    1
    16    30    31    1
    17    31    32    1
    18    32    33    1
    19    33    34    1
    20    34    37    1
    21    37    38   ar
    22    38    39   ar
    23    39    40   ar
    24    40    43    1
    25    43    44   ar
    26    44    45   ar
    27    45    46   ar
    28    46    47   ar
    29    47    48   ar
    30    40    41   ar
    31    34    35    1
    32    35    36    1
    33     4     5   ar
    34     5     6   ar
    35    12    13   ar
    36    13    24    1
    37    24    25   ar
    38    25    26   ar
    39    26    27   ar
    40    27    28   ar
    41    28    29   ar
    42    13    14   ar
    43    14    15   ar
    44    15    16   ar
    45    21    22    1
    46    22    23    1
    47    23    18    1
    48    16     7   ar
    49    15    10   ar
    50     6     1   ar
    51    29    24   ar
    52    36    31    1
    53    41    37   ar
    54    48    43   ar
    55    41    42    1
