@<TRIPOS>MOLECULE
*****
 33 37 0 0 0
SMALL
GASTEIGER

@<TRIPOS>ATOM
      1 C         143.5168  142.5796  162.9510 C.ar    1  UNL1        0.0677
      2 C         145.0032  142.6030  162.7509 C.ar    1  UNL1        0.0162
      3 C         145.8654  141.5697  163.4133 C.ar    1  UNL1        0.0029
      4 C         145.2413  140.5130  164.2758 C.ar    1  UNL1        0.0188
      5 C         143.7550  140.4896  164.4759 C.ar    1  UNL1        0.0801
      6 C         142.8927  141.5229  163.8135 C.ar    1  UNL1        0.1120
      7 N         141.4673  141.2492  164.1923 N.ar    1  UNL1       -0.2256
      8 C         141.4487  140.0467  165.0888 C.ar    1  UNL1        0.1439
      9 N         142.8625  139.5773  165.2641 N.ar    1  UNL1       -0.3094
     10 C         143.3061  138.4019  166.0836 C.3     1  UNL1        0.1319
     11 C         140.2301  139.4231  165.7024 C.ar    1  UNL1        0.0343
     12 C         139.6039  138.2173  165.0668 C.ar    1  UNL1        0.0053
     13 C         138.3855  137.5938  165.6804 C.ar    1  UNL1        0.0297
     14 C         137.7932  138.1760  166.9295 C.ar    1  UNL1        0.1401
     15 F         136.5747  137.5524  167.5430 F       1  UNL1       -0.2042
     16 C         138.4194  139.3818  167.5650 C.ar    1  UNL1        0.0297
     17 C         139.6379  140.0053  166.9515 C.ar    1  UNL1        0.0053
     18 N         142.6544  143.6129  162.2886 N.pl3   1  UNL1       -0.3112
     19 H         142.7754  144.5660  162.5033 H       1  UNL1        0.1523
     20 C         139.1419  142.5832  160.7550 C.ar    1  UNL1        0.1559
     21 C         140.1885  143.0023  161.7446 C.ar    1  UNL1        0.0530
     22 C         141.6079  143.1939  161.2991 C.ar    1  UNL1        0.0515
     23 C         141.9808  142.9665  159.8641 C.ar    1  UNL1        0.0163
     24 C         140.9343  142.5475  158.8745 C.ar    1  UNL1        0.0219
     25 C         139.5148  142.3559  159.3201 C.ar    1  UNL1        0.0995
     26 N         138.4682  141.9368  158.3305 N.ar    1  UNL1       -0.2839
     27 C         137.7912  140.5994  158.2764 C.ar    1  UNL1        0.1826
     28 N         136.8195  140.6177  157.1338 N.ar    1  UNL1       -0.2280
     29 C         136.8960  141.9664  156.4818 C.ar    1  UNL1        0.0786
     30 C         136.0943  142.4202  155.2980 C.3     1  UNL1        0.0538
     31 C         137.9149  142.7817  157.2214 C.ar    1  UNL1        0.0963
     32 C         137.4203  142.1119  162.6429 C.3     1  UNL1        0.2525
     33 O         137.7224  142.3916  161.2006 O.3     1  UNL1       -0.4699
@<TRIPOS>BOND
     1    32    33    1
     2    33    20    1
     3    20    21   ar
     4    21    22   ar
     5    22    18    1
     6    18     1    1
     7     1     2   ar
     8     2     3   ar
     9     3     4   ar
    10     4     5   ar
    11     5     6   ar
    12     6     7   ar
    13     7     8   ar
    14     8    11    1
    15    11    12   ar
    16    12    13   ar
    17    13    14   ar
    18    14    15    1
    19    14    16   ar
    20    16    17   ar
    21     8     9   ar
    22     9    10    1
    23    22    23   ar
    24    23    24   ar
    25    24    25   ar
    26    25    26    1
    27    26    27   ar
    28    27    28   ar
    29    28    29   ar
    30    29    30    1
    31    29    31   ar
    32    25    20   ar
    33    31    26   ar
    34     6     1   ar
    35    17    11   ar
    36     9     5   ar
    37    18    19    1
@<TRIPOS>MOLECULE
*****
 33 37 0 0 0
SMALL
GASTEIGER

@<TRIPOS>ATOM
      1 C         142.8541  139.2149  167.9108 C.ar    1  UNL1        0.0677
      2 C         142.6805  138.7688  169.3323 C.ar    1  UNL1        0.0162
      3 C         141.8652  139.5940  170.2831 C.ar    1  UNL1        0.0029
      4 C         141.2235  140.8655  169.8124 C.ar    1  UNL1        0.0188
      5 C         141.3971  141.3117  168.3909 C.ar    1  UNL1        0.0801
      6 C         142.2124  140.4864  167.4401 C.ar    1  UNL1        0.1120
      7 N         142.2073  141.1745  166.1071 N.ar    1  UNL1       -0.2256
      8 C         141.3889  142.4251  166.2343 C.ar    1  UNL1        0.1439
      9 N         140.8881  142.5098  167.6457 N.ar    1  UNL1       -0.3094
     10 C         140.0291  143.6012  168.2124 C.3     1  UNL1        0.1319
     11 C         141.1186  143.4168  165.1417 C.ar    1  UNL1        0.0343
     12 C         139.7075  143.8069  164.8152 C.ar    1  UNL1        0.0053
     13 C         139.4373  144.7986  163.7228 C.ar    1  UNL1        0.0297
     14 C         140.5781  145.4001  162.9568 C.ar    1  UNL1        0.1401
     15 F         140.3078  146.3919  161.8643 F       1  UNL1       -0.2042
     16 C         141.9892  145.0100  163.2834 C.ar    1  UNL1        0.0297
     17 C         142.2594  144.0183  164.3758 C.ar    1  UNL1        0.0053
     18 N         143.6695  138.3896  166.9599 N.pl3   1  UNL1       -0.3112
     19 H         144.3912  137.8139  167.3018 H       1  UNL1        0.1523
     20 C         141.8974  137.7928  163.4594 C.ar    1  UNL1        0.1559
     21 C         142.1816  137.7408  164.9313 C.ar    1  UNL1        0.0530
     22 C         143.3853  138.4416  165.4880 C.ar    1  UNL1        0.0515
     23 C         144.3049  139.1945  164.5727 C.ar    1  UNL1        0.0163
     24 C         144.0207  139.2465  163.1008 C.ar    1  UNL1        0.0219
     25 C         142.8169  138.5456  162.5441 C.ar    1  UNL1        0.0995
     26 N         142.5327  138.5976  161.0722 N.ar    1  UNL1       -0.2839
     27 C         141.7898  139.6860  160.3556 C.ar    1  UNL1        0.1826
     28 N         141.7395  139.3314  158.8990 N.ar    1  UNL1       -0.2280
     29 C         142.4513  138.0239  158.7153 C.ar    1  UNL1        0.0786
     30 C         142.6397  137.2974  157.4166 C.3     1  UNL1        0.0538
     31 C         142.9415  137.5704  160.0585 C.ar    1  UNL1        0.0963
     32 C         139.3960  137.8302  162.7583 C.3     1  UNL1        0.2525
     33 O         140.6937  137.0919  162.9027 O.3     1  UNL1       -0.4699
@<TRIPOS>BOND
     1    32    33    1
     2    33    20    1
     3    20    21   ar
     4    21    22   ar
     5    22    18    1
     6    18     1    1
     7     1     2   ar
     8     2     3   ar
     9     3     4   ar
    10     4     5   ar
    11     5     6   ar
    12     6     7   ar
    13     7     8   ar
    14     8    11    1
    15    11    12   ar
    16    12    13   ar
    17    13    14   ar
    18    14    15    1
    19    14    16   ar
    20    16    17   ar
    21     8     9   ar
    22     9    10    1
    23    22    23   ar
    24    23    24   ar
    25    24    25   ar
    26    25    26    1
    27    26    27   ar
    28    27    28   ar
    29    28    29   ar
    30    29    30    1
    31    29    31   ar
    32    25    20   ar
    33    31    26   ar
    34     6     1   ar
    35    17    11   ar
    36     9     5   ar
    37    18    19    1
@<TRIPOS>MOLECULE
*****
 33 37 0 0 0
SMALL
GASTEIGER

@<TRIPOS>ATOM
      1 C         144.0003  142.4081  162.8751 C.ar    1  UNL1        0.0677
      2 C         144.4897  143.7924  162.5683 C.ar    1  UNL1        0.0162
      3 C         143.7548  144.9841  163.1064 C.ar    1  UNL1        0.0029
      4 C         142.5304  144.7915  163.9512 C.ar    1  UNL1        0.0188
      5 C         142.0410  143.4072  164.2580 C.ar    1  UNL1        0.0801
      6 C         142.7759  142.2155  163.7200 C.ar    1  UNL1        0.1120
      7 N         142.0620  140.9813  164.1860 N.ar    1  UNL1       -0.2256
      8 C         140.8858  141.4103  165.0121 C.ar    1  UNL1        0.1439
      9 N         140.8728  142.9096  165.0566 N.ar    1  UNL1       -0.3094
     10 C         139.8681  143.7617  165.7738 C.3     1  UNL1        0.1319
     11 C         139.8963  140.4999  165.6771 C.ar    1  UNL1        0.0343
     12 C         139.0465  139.5827  164.8486 C.ar    1  UNL1        0.0053
     13 C         138.0571  138.6723  165.5135 C.ar    1  UNL1        0.0297
     14 C         137.9175  138.6791  167.0070 C.ar    1  UNL1        0.1401
     15 F         136.9279  137.7687  167.6719 F       1  UNL1       -0.2042
     16 C         138.7673  139.5963  167.8355 C.ar    1  UNL1        0.0297
     17 C         139.7567  140.5067  167.1706 C.ar    1  UNL1        0.0053
     18 N         144.7353  141.2163  162.3370 N.pl3   1  UNL1       -0.3112
     19 H         145.6299  140.9926  162.6820 H       1  UNL1        0.1523
     20 C         143.2918  140.0609  158.8255 C.ar    1  UNL1        0.1559
     21 C         143.9198  140.9119  159.8892 C.ar    1  UNL1        0.0530
     22 C         144.1074  140.3653  161.2733 C.ar    1  UNL1        0.0515
     23 C         143.6670  138.9676  161.5939 C.ar    1  UNL1        0.0163
     24 C         143.0390  138.1166  160.5302 C.ar    1  UNL1        0.0219
     25 C         142.8514  138.6633  159.1459 C.ar    1  UNL1        0.0995
     26 N         142.2234  137.8123  158.0822 N.ar    1  UNL1       -0.2839
     27 C         140.8348  137.9655  157.5361 C.ar    1  UNL1        0.1826
     28 N         140.6270  136.9066  156.4942 N.ar    1  UNL1       -0.2280
     29 C         141.8872  136.0989  156.3964 C.ar    1  UNL1        0.0786
     30 C         142.1199  134.9358  155.4783 C.3     1  UNL1        0.0538
     31 C         142.8738  136.6587  157.3778 C.ar    1  UNL1        0.0963
     32 C         144.1437  140.3580  156.3891 C.3     1  UNL1        0.2525
     33 O         143.1042  140.6076  157.4412 O.3     1  UNL1       -0.4699
@<TRIPOS>BOND
     1    32    33    1
     2    33    20    1
     3    20    21   ar
     4    21    22   ar
     5    22    18    1
     6    18     1    1
     7     1     2   ar
     8     2     3   ar
     9     3     4   ar
    10     4     5   ar
    11     5     6   ar
    12     6     7   ar
    13     7     8   ar
    14     8    11    1
    15    11    12   ar
    16    12    13   ar
    17    13    14   ar
    18    14    15    1
    19    14    16   ar
    20    16    17   ar
    21     8     9   ar
    22     9    10    1
    23    22    23   ar
    24    23    24   ar
    25    24    25   ar
    26    25    26    1
    27    26    27   ar
    28    27    28   ar
    29    28    29   ar
    30    29    30    1
    31    29    31   ar
    32    25    20   ar
    33    31    26   ar
    34     6     1   ar
    35    17    11   ar
    36     9     5   ar
    37    18    19    1
@<TRIPOS>MOLECULE
*****
 33 37 0 0 0
SMALL
GASTEIGER

@<TRIPOS>ATOM
      1 C         143.7130  140.8244  159.1781 C.ar    1  UNL1        0.0677
      2 C         144.4696  141.1616  157.9276 C.ar    1  UNL1        0.0162
      3 C         144.2684  142.4922  157.2651 C.ar    1  UNL1        0.0029
      4 C         143.3105  143.4855  157.8530 C.ar    1  UNL1        0.0188
      5 C         142.5539  143.1483  159.1035 C.ar    1  UNL1        0.0801
      6 C         142.7551  141.8178  159.7660 C.ar    1  UNL1        0.1120
      7 N         141.8758  141.7668  160.9803 N.ar    1  UNL1       -0.2256
      8 C         141.1312  143.0660  161.0681 C.ar    1  UNL1        0.1439
      9 N         141.5503  143.9198  159.9082 N.ar    1  UNL1       -0.3094
     10 C         141.0530  145.3023  159.6060 C.3     1  UNL1        0.1319
     11 C         140.1413  143.4449  162.1296 C.ar    1  UNL1        0.0343
     12 C         140.5936  144.2085  163.3387 C.ar    1  UNL1        0.0053
     13 C         139.6037  144.5874  164.4001 C.ar    1  UNL1        0.0297
     14 C         138.1614  144.2025  164.2523 C.ar    1  UNL1        0.1401
     15 F         137.1715  144.5814  165.3137 F       1  UNL1       -0.2042
     16 C         137.7091  143.4388  163.0431 C.ar    1  UNL1        0.0297
     17 C         138.6990  143.0600  161.9818 C.ar    1  UNL1        0.0053
     18 N         143.9142  139.4937  159.8407 N.pl3   1  UNL1       -0.3112
     19 H         144.1483  138.7050  159.3001 H       1  UNL1        0.1523
     20 C         142.5943  138.2827  163.3821 C.ar    1  UNL1        0.1559
     21 C         142.7499  138.4115  161.8957 C.ar    1  UNL1        0.0530
     22 C         143.7586  139.3649  161.3271 C.ar    1  UNL1        0.0515
     23 C         144.6118  140.1896  162.2447 C.ar    1  UNL1        0.0163
     24 C         144.4562  140.0607  163.7311 C.ar    1  UNL1        0.0219
     25 C         143.4475  139.1073  164.2997 C.ar    1  UNL1        0.0995
     26 N         143.2919  138.9784  165.7861 N.ar    1  UNL1       -0.2839
     27 C         143.8748  137.8940  166.6429 C.ar    1  UNL1        0.1826
     28 N         143.4693  138.1567  168.0629 N.ar    1  UNL1       -0.2280
     29 C         142.6357  139.4036  168.0838 C.ar    1  UNL1        0.0786
     30 C         142.0198  140.0323  169.2984 C.3     1  UNL1        0.0538
     31 C         142.5260  139.9114  166.6766 C.ar    1  UNL1        0.0963
     32 C         140.2328  137.8276  164.3652 C.3     1  UNL1        0.2525
     33 O         141.5855  137.3292  163.9507 O.3     1  UNL1       -0.4699
@<TRIPOS>BOND
     1    32    33    1
     2    33    20    1
     3    20    21   ar
     4    21    22   ar
     5    22    18    1
     6    18     1    1
     7     1     2   ar
     8     2     3   ar
     9     3     4   ar
    10     4     5   ar
    11     5     6   ar
    12     6     7   ar
    13     7     8   ar
    14     8    11    1
    15    11    12   ar
    16    12    13   ar
    17    13    14   ar
    18    14    15    1
    19    14    16   ar
    20    16    17   ar
    21     8     9   ar
    22     9    10    1
    23    22    23   ar
    24    23    24   ar
    25    24    25   ar
    26    25    26    1
    27    26    27   ar
    28    27    28   ar
    29    28    29   ar
    30    29    30    1
    31    29    31   ar
    32    25    20   ar
    33    31    26   ar
    34     6     1   ar
    35    17    11   ar
    36     9     5   ar
    37    18    19    1
@<TRIPOS>MOLECULE
*****
 33 37 0 0 0
SMALL
GASTEIGER

@<TRIPOS>ATOM
      1 C         138.6490  140.7071  158.7312 C.ar    1  UNL1        0.0677
      2 C         137.9330  140.8632  157.4224 C.ar    1  UNL1        0.0162
      3 C         138.0258  142.1553  156.6663 C.ar    1  UNL1        0.0029
      4 C         138.8345  143.2913  157.2189 C.ar    1  UNL1        0.0188
      5 C         139.5505  143.1352  158.5277 C.ar    1  UNL1        0.0801
      6 C         139.4577  141.8431  159.2838 C.ar    1  UNL1        0.1120
      7 N         140.2663  141.9818  160.5397 N.ar    1  UNL1       -0.2256
      8 C         140.8587  143.3597  160.5596 C.ar    1  UNL1        0.1439
      9 N         140.4163  144.0725  159.3162 N.ar    1  UNL1       -0.3094
     10 C         140.7765  145.4763  158.9291 C.3     1  UNL1        0.1319
     11 C         141.7391  143.9255  161.6344 C.ar    1  UNL1        0.0343
     12 C         141.1522  144.8033  162.6998 C.ar    1  UNL1        0.0053
     13 C         142.0326  145.3690  163.7744 C.ar    1  UNL1        0.0297
     14 C         143.4997  145.0570  163.7837 C.ar    1  UNL1        0.1401
     15 F         144.3800  145.6228  164.8584 F       1  UNL1       -0.2042
     16 C         144.0866  144.1792  162.7183 C.ar    1  UNL1        0.0297
     17 C         143.2062  143.6135  161.6436 C.ar    1  UNL1        0.0053
     18 N         138.5563  139.4149  159.4874 N.pl3   1  UNL1       -0.3112
     19 H         138.4704  138.5641  158.9995 H       1  UNL1        0.1523
     20 C         139.5983  138.5360  163.2146 C.ar    1  UNL1        0.1559
     21 C         139.5601  138.5319  161.7151 C.ar    1  UNL1        0.0530
     22 C         138.5945  139.4191  160.9869 C.ar    1  UNL1        0.0515
     23 C         137.6669  140.3105  161.7583 C.ar    1  UNL1        0.0163
     24 C         137.7050  140.3147  163.2578 C.ar    1  UNL1        0.0219
     25 C         138.6708  139.4274  163.9859 C.ar    1  UNL1        0.0995
     26 N         138.7089  139.4316  165.4854 N.ar    1  UNL1       -0.2839
     27 C         137.8825  138.5672  166.3909 C.ar    1  UNL1        0.1826
     28 N         138.2430  138.9023  167.8078 N.ar    1  UNL1       -0.2280
     29 C         139.2922  139.9738  167.7781 C.ar    1  UNL1        0.0786
     30 C         139.9398  140.6071  168.9738 C.3     1  UNL1        0.0538
     31 C         139.5801  140.3010  166.3428 C.ar    1  UNL1        0.0963
     32 C         141.9445  138.1429  164.2591 C.3     1  UNL1        0.2525
     33 O         140.5640  137.6488  163.9427 O.3     1  UNL1       -0.4699
@<TRIPOS>BOND
     1    32    33    1
     2    33    20    1
     3    20    21   ar
     4    21    22   ar
     5    22    18    1
     6    18     1    1
     7     1     2   ar
     8     2     3   ar
     9     3     4   ar
    10     4     5   ar
    11     5     6   ar
    12     6     7   ar
    13     7     8   ar
    14     8    11    1
    15    11    12   ar
    16    12    13   ar
    17    13    14   ar
    18    14    15    1
    19    14    16   ar
    20    16    17   ar
    21     8     9   ar
    22     9    10    1
    23    22    23   ar
    24    23    24   ar
    25    24    25   ar
    26    25    26    1
    27    26    27   ar
    28    27    28   ar
    29    28    29   ar
    30    29    30    1
    31    29    31   ar
    32    25    20   ar
    33    31    26   ar
    34     6     1   ar
    35    17    11   ar
    36     9     5   ar
    37    18    19    1
@<TRIPOS>MOLECULE
*****
 33 37 0 0 0
SMALL
GASTEIGER

@<TRIPOS>ATOM
      1 C         141.8695  143.6717  161.6754 C.ar    1  UNL1        0.0677
      2 C         141.4642  144.7675  160.7347 C.ar    1  UNL1        0.0162
      3 C         140.3591  145.7090  161.1118 C.ar    1  UNL1        0.0029
      4 C         139.6594  145.5548  162.4296 C.ar    1  UNL1        0.0188
      5 C         140.0647  144.4591  163.3703 C.ar    1  UNL1        0.0801
      6 C         141.1698  143.5175  162.9933 C.ar    1  UNL1        0.1120
      7 N         141.3497  142.5402  164.1169 N.ar    1  UNL1       -0.2256
      8 C         140.3558  142.8777  165.1884 C.ar    1  UNL1        0.1439
      9 N         139.5616  144.0637  164.7270 N.ar    1  UNL1       -0.3094
     10 C         138.4581  144.7362  165.4885 C.3     1  UNL1        0.1319
     11 C         140.1858  142.1561  166.4924 C.ar    1  UNL1        0.0343
     12 C         139.6394  140.7593  166.5109 C.ar    1  UNL1        0.0053
     13 C         139.4694  140.0377  167.8149 C.ar    1  UNL1        0.0297
     14 C         139.8460  140.7129  169.1004 C.ar    1  UNL1        0.1401
     15 F         139.6760  139.9913  170.4044 F       1  UNL1       -0.2042
     16 C         140.3924  142.1097  169.0818 C.ar    1  UNL1        0.0297
     17 C         140.5623  142.8313  167.7779 C.ar    1  UNL1        0.0053
     18 N         142.9747  142.7301  161.2984 N.pl3   1  UNL1       -0.3112
     19 H         143.8849  142.8759  161.6439 H       1  UNL1        0.1523
     20 C         141.5634  139.2644  159.9767 C.ar    1  UNL1        0.1559
     21 C         141.8453  140.4281  160.8802 C.ar    1  UNL1        0.0530
     22 C         142.6929  141.5664  160.3949 C.ar    1  UNL1        0.0515
     23 C         143.2587  141.5411  159.0058 C.ar    1  UNL1        0.0163
     24 C         142.9769  140.3774  158.1023 C.ar    1  UNL1        0.0219
     25 C         142.1292  139.2390  158.5878 C.ar    1  UNL1        0.0995
     26 N         141.8474  138.0753  157.6842 N.ar    1  UNL1       -0.2839
     27 C         140.5884  137.8527  156.8999 C.ar    1  UNL1        0.1826
     28 N         140.7380  136.5697  156.1373 N.ar    1  UNL1       -0.2280
     29 C         142.0895  135.9994  156.4503 C.ar    1  UNL1        0.0786
     30 C         142.6560  134.7227  155.9034 C.3     1  UNL1        0.0538
     31 C         142.7752  136.9299  157.4064 C.ar    1  UNL1        0.0963
     32 C         139.2450  138.3253  160.6791 C.3     1  UNL1        0.2525
     33 O         140.7158  138.1260  160.4622 O.3     1  UNL1       -0.4699
@<TRIPOS>BOND
     1    32    33    1
     2    33    20    1
     3    20    21   ar
     4    21    22   ar
     5    22    18    1
     6    18     1    1
     7     1     2   ar
     8     2     3   ar
     9     3     4   ar
    10     4     5   ar
    11     5     6   ar
    12     6     7   ar
    13     7     8   ar
    14     8    11    1
    15    11    12   ar
    16    12    13   ar
    17    13    14   ar
    18    14    15    1
    19    14    16   ar
    20    16    17   ar
    21     8     9   ar
    22     9    10    1
    23    22    23   ar
    24    23    24   ar
    25    24    25   ar
    26    25    26    1
    27    26    27   ar
    28    27    28   ar
    29    28    29   ar
    30    29    30    1
    31    29    31   ar
    32    25    20   ar
    33    31    26   ar
    34     6     1   ar
    35    17    11   ar
    36     9     5   ar
    37    18    19    1
@<TRIPOS>MOLECULE
*****
 33 37 0 0 0
SMALL
GASTEIGER

@<TRIPOS>ATOM
      1 C         143.3071  142.8948  163.0531 C.ar    1  UNL1        0.0677
      2 C         144.7770  142.9184  162.7553 C.ar    1  UNL1        0.0162
      3 C         145.6602  141.8115  163.2499 C.ar    1  UNL1        0.0029
      4 C         145.0736  140.6810  164.0422 C.ar    1  UNL1        0.0188
      5 C         143.6036  140.6574  164.3400 C.ar    1  UNL1        0.0801
      6 C         142.7204  141.7643  163.8454 C.ar    1  UNL1        0.1120
      7 N         141.3181  141.4727  164.2911 N.ar    1  UNL1       -0.2256
      8 C         141.3347  140.1855  165.0612 C.ar    1  UNL1        0.1439
      9 N         142.7473  139.6817  165.0913 N.ar    1  UNL1       -0.3094
     10 C         143.2204  138.4231  165.7562 C.3     1  UNL1        0.1319
     11 C         140.1473  139.5192  165.6905 C.ar    1  UNL1        0.0343
     12 C         139.5860  140.0467  166.9776 C.ar    1  UNL1        0.0053
     13 C         138.3986  139.3804  167.6069 C.ar    1  UNL1        0.0297
     14 C         137.7726  138.1865  166.9492 C.ar    1  UNL1        0.1401
     15 F         136.5851  137.5201  167.5786 F       1  UNL1       -0.2042
     16 C         138.3339  137.6589  165.6621 C.ar    1  UNL1        0.0297
     17 C         139.5212  138.3253  165.0328 C.ar    1  UNL1        0.0053
     18 N         142.4238  144.0017  162.5585 N.pl3   1  UNL1       -0.3112
     19 H         142.3727  144.8500  163.0554 H       1  UNL1        0.1523
     20 C         140.6286  142.2579  159.4784 C.ar    1  UNL1        0.1559
     21 C         141.4341  142.4436  160.7301 C.ar    1  UNL1        0.0530
     22 C         141.6183  143.8160  161.3067 C.ar    1  UNL1        0.0515
     23 C         140.9971  145.0028  160.6316 C.ar    1  UNL1        0.0163
     24 C         140.1917  144.8171  159.3799 C.ar    1  UNL1        0.0219
     25 C         140.0075  143.4446  158.8033 C.ar    1  UNL1        0.0995
     26 N         139.2020  143.2590  157.5516 N.ar    1  UNL1       -0.2839
     27 C         139.6055  143.6875  156.1719 C.ar    1  UNL1        0.1826
     28 N         138.5045  143.3055  155.2274 N.ar    1  UNL1       -0.2280
     29 C         137.4207  142.6409  156.0233 C.ar    1  UNL1        0.0786
     30 C         136.1320  142.1001  155.4786 C.3     1  UNL1        0.0538
     31 C         137.8518  142.6122  157.4598 C.ar    1  UNL1        0.0963
     32 C         141.2323  139.7311  159.4465 C.3     1  UNL1        0.2525
     33 O         140.4444  140.8854  158.9018 O.3     1  UNL1       -0.4699
@<TRIPOS>BOND
     1    32    33    1
     2    33    20    1
     3    20    21   ar
     4    21    22   ar
     5    22    18    1
     6    18     1    1
     7     1     2   ar
     8     2     3   ar
     9     3     4   ar
    10     4     5   ar
    11     5     6   ar
    12     6     7   ar
    13     7     8   ar
    14     8    11    1
    15    11    12   ar
    16    12    13   ar
    17    13    14   ar
    18    14    15    1
    19    14    16   ar
    20    16    17   ar
    21     8     9   ar
    22     9    10    1
    23    22    23   ar
    24    23    24   ar
    25    24    25   ar
    26    25    26    1
    27    26    27   ar
    28    27    28   ar
    29    28    29   ar
    30    29    30    1
    31    29    31   ar
    32    25    20   ar
    33    31    26   ar
    34     6     1   ar
    35    17    11   ar
    36     9     5   ar
    37    18    19    1
@<TRIPOS>MOLECULE
*****
 33 37 0 0 0
SMALL
GASTEIGER

@<TRIPOS>ATOM
      1 C         138.4074  140.5281  158.7330 C.ar    1  UNL1        0.0677
      2 C         138.3214  142.0219  158.6279 C.ar    1  UNL1        0.0162
      3 C         139.2280  142.7611  157.6890 C.ar    1  UNL1        0.0029
      4 C         140.2206  142.0065  156.8552 C.ar    1  UNL1        0.0188
      5 C         140.3066  140.5126  156.9603 C.ar    1  UNL1        0.0801
      6 C         139.4000  139.7735  157.8992 C.ar    1  UNL1        0.1120
      7 N         139.7121  138.3103  157.7892 N.ar    1  UNL1       -0.2256
      8 C         140.8115  138.1454  156.7823 C.ar    1  UNL1        0.1439
      9 N         141.1790  139.5065  156.2700 N.ar    1  UNL1       -0.3094
     10 C         142.2337  139.8084  155.2470 C.3     1  UNL1        0.1319
     11 C         141.4343  136.8472  156.3615 C.ar    1  UNL1        0.0343
     12 C         140.7622  135.9932  155.3277 C.ar    1  UNL1        0.0053
     13 C         141.3849  134.6951  154.9069 C.ar    1  UNL1        0.0297
     14 C         142.6799  134.2510  155.5201 C.ar    1  UNL1        0.1401
     15 F         143.3026  132.9528  155.0993 F       1  UNL1       -0.2042
     16 C         143.3520  135.1050  156.5539 C.ar    1  UNL1        0.0297
     17 C         142.7292  136.4031  156.9746 C.ar    1  UNL1        0.0053
     18 N         137.5007  139.7888  159.6720 N.pl3   1  UNL1       -0.3112
     19 H         136.7025  139.3286  159.3253 H       1  UNL1        0.1523
     20 C         138.8215  138.5243  163.1943 C.ar    1  UNL1        0.1559
     21 C         138.5118  138.5624  161.7271 C.ar    1  UNL1        0.0530
     22 C         137.8104  139.7507  161.1392 C.ar    1  UNL1        0.0515
     23 C         137.4186  140.9012  162.0185 C.ar    1  UNL1        0.0163
     24 C         137.7282  140.8631  163.4857 C.ar    1  UNL1        0.0219
     25 C         138.4297  139.6747  164.0736 C.ar    1  UNL1        0.0995
     26 N         138.7394  139.6366  165.5408 N.ar    1  UNL1       -0.2839
     27 C         137.9237  138.9512  166.5966 C.ar    1  UNL1        0.1826
     28 N         138.5992  139.1683  167.9181 N.ar    1  UNL1       -0.2280
     29 C         139.8325  139.9879  167.6791 C.ar    1  UNL1        0.0786
     30 C         140.8080  140.4390  168.7255 C.3     1  UNL1        0.0538
     31 C         139.9191  140.2774  166.2098 C.ar    1  UNL1        0.0963
     32 C         141.0136  137.2129  163.6687 C.3     1  UNL1        0.2525
     33 O         139.5230  137.3359  163.7822 O.3     1  UNL1       -0.4699
@<TRIPOS>BOND
     1    32    33    1
     2    33    20    1
     3    20    21   ar
     4    21    22   ar
     5    22    18    1
     6    18     1    1
     7     1     2   ar
     8     2     3   ar
     9     3     4   ar
    10     4     5   ar
    11     5     6   ar
    12     6     7   ar
    13     7     8   ar
    14     8    11    1
    15    11    12   ar
    16    12    13   ar
    17    13    14   ar
    18    14    15    1
    19    14    16   ar
    20    16    17   ar
    21     8     9   ar
    22     9    10    1
    23    22    23   ar
    24    23    24   ar
    25    24    25   ar
    26    25    26    1
    27    26    27   ar
    28    27    28   ar
    29    28    29   ar
    30    29    30    1
    31    29    31   ar
    32    25    20   ar
    33    31    26   ar
    34     6     1   ar
    35    17    11   ar
    36     9     5   ar
    37    18    19    1
@<TRIPOS>MOLECULE
*****
 33 37 0 0 0
SMALL
GASTEIGER

@<TRIPOS>ATOM
      1 C         140.8611  139.4280  162.6434 C.ar    1  UNL1        0.0677
      2 C         139.9089  138.4352  162.0455 C.ar    1  UNL1        0.0162
      3 C         138.8467  137.8072  162.8983 C.ar    1  UNL1        0.0029
      4 C         138.7367  138.1721  164.3491 C.ar    1  UNL1        0.0188
      5 C         139.6889  139.1650  164.9470 C.ar    1  UNL1        0.0801
      6 C         140.7511  139.7929  164.0942 C.ar    1  UNL1        0.1120
      7 N         141.5419  140.7325  164.9556 N.ar    1  UNL1       -0.2256
      8 C         140.9683  140.6853  166.3408 C.ar    1  UNL1        0.1439
      9 N         139.8231  139.7165  166.3355 N.ar    1  UNL1       -0.3094
     10 C         138.9631  139.3615  167.5121 C.3     1  UNL1        0.1319
     11 C         141.4546  141.4692  167.5236 C.ar    1  UNL1        0.0343
     12 C         142.8276  141.2217  168.0744 C.ar    1  UNL1        0.0053
     13 C         143.3138  142.0056  169.2572 C.ar    1  UNL1        0.0297
     14 C         142.4269  143.0370  169.8893 C.ar    1  UNL1        0.1401
     15 F         142.9132  143.8209  171.0721 F       1  UNL1       -0.2042
     16 C         141.0538  143.2845  169.3385 C.ar    1  UNL1        0.0297
     17 C         140.5677  142.5006  168.1557 C.ar    1  UNL1        0.0053
     18 N         141.9234  140.0560  161.7906 N.pl3   1  UNL1       -0.3112
     19 H         142.8591  139.7613  161.8733 H       1  UNL1        0.1523
     20 C         140.3478  143.3663  160.2710 C.ar    1  UNL1        0.1559
     21 C         140.7112  142.2894  161.2499 C.ar    1  UNL1        0.0530
     22 C         141.5599  141.1329  160.8117 C.ar    1  UNL1        0.0515
     23 C         142.0451  141.0531  159.3945 C.ar    1  UNL1        0.0163
     24 C         141.6817  142.1300  158.4157 C.ar    1  UNL1        0.0219
     25 C         140.8330  143.2866  158.8540 C.ar    1  UNL1        0.0995
     26 N         140.4695  144.3635  157.8751 N.ar    1  UNL1       -0.2839
     27 C         141.1515  145.6918  157.7320 C.ar    1  UNL1        0.1826
     28 N         140.4637  146.4504  156.6359 N.ar    1  UNL1       -0.2280
     29 C         139.3565  145.5910  156.1016 C.ar    1  UNL1        0.0786
     30 C         138.4117  145.9571  154.9956 C.3     1  UNL1        0.0538
     31 C         139.3601  144.3013  156.8674 C.ar    1  UNL1        0.0963
     32 C         140.1335  145.7110  161.3696 C.3     1  UNL1        0.2525
     33 O         139.4991  144.5229  160.7093 O.3     1  UNL1       -0.4699
@<TRIPOS>BOND
     1    32    33    1
     2    33    20    1
     3    20    21   ar
     4    21    22   ar
     5    22    18    1
     6    18     1    1
     7     1     2   ar
     8     2     3   ar
     9     3     4   ar
    10     4     5   ar
    11     5     6   ar
    12     6     7   ar
    13     7     8   ar
    14     8    11    1
    15    11    12   ar
    16    12    13   ar
    17    13    14   ar
    18    14    15    1
    19    14    16   ar
    20    16    17   ar
    21     8     9   ar
    22     9    10    1
    23    22    23   ar
    24    23    24   ar
    25    24    25   ar
    26    25    26    1
    27    26    27   ar
    28    27    28   ar
    29    28    29   ar
    30    29    30    1
    31    29    31   ar
    32    25    20   ar
    33    31    26   ar
    34     6     1   ar
    35    17    11   ar
    36     9     5   ar
    37    18    19    1
