@<TRIPOS>MOLECULE
*****
 33 36 0 0 0
SMALL
GASTEIGER

@<TRIPOS>ATOM
      1 N         142.2521  139.2027  159.5099 N.3     1  UNL1       -0.2673
      2 C         142.8019  140.5707  159.2338 C.3     1  UNL1        0.1035
      3 C         143.6515  141.2588  160.2606 C.3     1  UNL1        0.1470
      4 C         144.5012  141.9471  161.2875 C.3     1  UNL1        0.1035
      5 N         144.8011  141.2672  162.5905 N.3     1  UNL1       -0.2682
      6 C         144.2513  139.8991  162.8667 C.3     1  UNL1        0.1035
      7 C         143.4017  139.2110  161.8398 C.3     1  UNL1        0.1470
      8 C         142.5520  138.5229  160.8129 C.3     1  UNL1        0.1035
      9 O         143.9514  140.5790  161.5636 O.3     1  UNL1       -0.3530
     10 C         141.4024  138.5145  158.4830 C.3     1  UNL1        0.0916
     11 C         139.9475  138.2708  158.7547 C.3     1  UNL1        0.1131
     12 C         138.4813  140.4120  158.6290 C.3     1  UNL1        0.1149
     13 N         139.1251  139.3240  159.4363 N.3     1  UNL1       -0.1526
     14 S         138.9465  139.2891  160.9252 S.O2    1  UNL1        0.0634
     15 O         139.0791  137.7951  160.9061 O.2     1  UNL1       -0.1528
     16 O         138.8139  140.7831  160.9443 O.2     1  UNL1       -0.1528
     17 C         138.7680  139.2543  162.4141 C.ar    1  UNL1        0.1222
     18 C         138.3842  140.5020  163.1529 C.ar    1  UNL1        0.0206
     19 C         138.2056  140.4671  164.6418 C.ar    1  UNL1        0.0116
     20 C         138.4108  139.1845  165.3920 C.ar    1  UNL1        0.0685
     21 C         138.7946  137.9367  164.6532 C.ar    1  UNL1        0.0116
     22 C         138.9732  137.9716  163.1643 C.ar    1  UNL1        0.0206
     23 C         138.2323  139.1496  166.8809 C.1     1  UNL1        0.1004
     24 N         138.0537  139.1147  168.3698 N.1     1  UNL1       -0.1908
     25 C         145.6508  141.9554  163.6174 C.3     1  UNL1        0.0769
     26 C         145.0059  142.6672  164.7695 C.3     1  UNL1        0.0437
     27 C         143.6276  143.2399  164.6207 C.ar    1  UNL1       -0.0207
     28 C         142.4429  142.4920  165.1565 C.ar    1  UNL1       -0.0034
     29 C         141.0644  143.0646  165.0077 C.ar    1  UNL1        0.0111
     30 C         140.8707  144.3851  164.3230 C.ar    1  UNL1        0.0577
     31 CL        139.4924  144.9577  164.1741 Cl      1  UNL1       -0.0822
     32 C         142.0555  145.1330  163.7871 C.ar    1  UNL1        0.0111
     33 C         143.4339  144.5603  163.9360 C.ar    1  UNL1       -0.0034
@<TRIPOS>BOND
     1    12    13    1
     2    13    11    1
     3    11    10    1
     4    10     1    1
     5     1     2    1
     6     2     3    1
     7     3     4    1
     8     4     5    1
     9     5    25    1
    10    25    26    1
    11    26    27    1
    12    27    28   ar
    13    28    29   ar
    14    29    30   ar
    15    30    31    1
    16    30    32   ar
    17    32    33   ar
    18     5     6    1
    19     6     7    1
    20     7     8    1
    21     7     9    1
    22    13    14    1
    23    14    15    2
    24    14    16    2
    25    14    17    1
    26    17    18   ar
    27    18    19   ar
    28    19    20   ar
    29    20    23    1
    30    23    24    3
    31    20    21   ar
    32    21    22   ar
    33     8     1    1
    34    22    17   ar
    35     9     3    1
    36    33    27   ar
@<TRIPOS>MOLECULE
*****
 33 36 0 0 0
SMALL
GASTEIGER

@<TRIPOS>ATOM
      1 N         142.0838  139.8818  159.1344 N.3     1  UNL1       -0.2673
      2 C         142.3928  138.9891  160.2995 C.3     1  UNL1        0.1035
      3 C         143.3112  139.4649  161.3859 C.3     1  UNL1        0.1470
      4 C         144.2296  139.9406  162.4724 C.3     1  UNL1        0.1035
      5 N         144.8390  141.3090  162.3935 N.3     1  UNL1       -0.2682
      6 C         144.5299  142.2016  161.2283 C.3     1  UNL1        0.1035
      7 C         143.6115  141.7259  160.1419 C.3     1  UNL1        0.1470
      8 C         142.6932  141.2502  159.0556 C.3     1  UNL1        0.1035
      9 O         143.9205  140.8332  161.3071 O.3     1  UNL1       -0.3530
     10 C         141.1654  139.4060  158.0479 C.3     1  UNL1        0.0916
     11 C         139.8353  138.8079  158.3987 C.3     1  UNL1        0.1131
     12 C         137.9029  140.5443  158.3755 C.3     1  UNL1        0.1149
     13 N         138.8153  139.6263  159.1335 N.3     1  UNL1       -0.1526
     14 S         138.7077  139.5264  160.6263 S.O2    1  UNL1        0.0634
     15 O         139.0662  138.0717  160.5549 O.2     1  UNL1       -0.1528
     16 O         138.3492  140.9812  160.6978 O.2     1  UNL1       -0.1528
     17 C         138.6001  139.4266  162.1191 C.ar    1  UNL1        0.1222
     18 C         138.9832  138.1544  162.8153 C.ar    1  UNL1        0.0206
     19 C         138.8756  138.0546  164.3081 C.ar    1  UNL1        0.0116
     20 C         138.3849  139.2270  165.1047 C.ar    1  UNL1        0.0685
     21 C         138.0018  140.4993  164.4086 C.ar    1  UNL1        0.0116
     22 C         138.1094  140.5991  162.9158 C.ar    1  UNL1        0.0206
     23 C         138.2774  139.1272  166.5975 C.1     1  UNL1        0.1004
     24 N         138.1698  139.0274  168.0903 N.1     1  UNL1       -0.1908
     25 C         145.7573  141.7847  163.4799 C.3     1  UNL1        0.0769
     26 C         145.2342  142.6752  164.5678 C.3     1  UNL1        0.0437
     27 C         143.8402  143.2225  164.4836 C.ar    1  UNL1       -0.0207
     28 C         143.6041  144.5885  163.9106 C.ar    1  UNL1       -0.0034
     29 C         142.2101  145.1359  163.8264 C.ar    1  UNL1        0.0111
     30 C         141.0521  144.3172  164.3151 C.ar    1  UNL1        0.0577
     31 CL        139.6581  144.8646  164.2308 Cl      1  UNL1       -0.0822
     32 C         141.2882  142.9512  164.8880 C.ar    1  UNL1        0.0111
     33 C         142.6822  142.4039  164.9723 C.ar    1  UNL1       -0.0034
@<TRIPOS>BOND
     1    12    13    1
     2    13    11    1
     3    11    10    1
     4    10     1    1
     5     1     2    1
     6     2     3    1
     7     3     4    1
     8     4     5    1
     9     5    25    1
    10    25    26    1
    11    26    27    1
    12    27    28   ar
    13    28    29   ar
    14    29    30   ar
    15    30    31    1
    16    30    32   ar
    17    32    33   ar
    18     5     6    1
    19     6     7    1
    20     7     8    1
    21     7     9    1
    22    13    14    1
    23    14    15    2
    24    14    16    2
    25    14    17    1
    26    17    18   ar
    27    18    19   ar
    28    19    20   ar
    29    20    23    1
    30    23    24    3
    31    20    21   ar
    32    21    22   ar
    33     8     1    1
    34    22    17   ar
    35     9     3    1
    36    33    27   ar
@<TRIPOS>MOLECULE
*****
 33 36 0 0 0
SMALL
GASTEIGER

@<TRIPOS>ATOM
      1 N         139.2146  139.9214  160.0097 N.3     1  UNL1       -0.2673
      2 C         138.4911  139.4933  161.2520 C.3     1  UNL1        0.1035
      3 C         138.0772  140.5154  162.2687 C.3     1  UNL1        0.1470
      4 C         137.6632  141.5376  163.2856 C.3     1  UNL1        0.1035
      5 N         137.9728  142.9878  163.0601 N.3     1  UNL1       -0.2682
      6 C         138.6963  143.4160  161.8178 C.3     1  UNL1        0.1035
      7 C         139.1102  142.3938  160.8010 C.3     1  UNL1        0.1470
      8 C         139.5241  141.3717  159.7842 C.3     1  UNL1        0.1035
      9 O         138.3868  141.9657  162.0432 O.3     1  UNL1       -0.3530
     10 C         139.6285  138.8993  158.9929 C.3     1  UNL1        0.0916
     11 C         140.9378  138.1822  159.1402 C.3     1  UNL1        0.1131
     12 C         143.1265  139.5599  158.8919 C.3     1  UNL1        0.1149
     13 N         142.1101  138.8816  159.7619 N.3     1  UNL1       -0.1526
     14 S         142.2661  138.9027  161.2536 S.O2    1  UNL1        0.0634
     15 O         141.7899  137.4820  161.3235 O.2     1  UNL1       -0.1528
     16 O         142.7424  140.3234  161.1838 O.2     1  UNL1       -0.1528
     17 C         142.4221  138.9238  162.7454 C.ar    1  UNL1        0.1222
     18 C         141.2148  138.8049  163.6275 C.ar    1  UNL1        0.0206
     19 C         141.3708  138.8260  165.1192 C.ar    1  UNL1        0.0116
     20 C         142.7341  138.9659  165.7288 C.ar    1  UNL1        0.0685
     21 C         143.9415  139.0848  164.8467 C.ar    1  UNL1        0.0116
     22 C         143.7856  139.0637  163.3550 C.ar    1  UNL1        0.0206
     23 C         142.8901  138.9870  167.2205 C.1     1  UNL1        0.1004
     24 N         143.0461  139.0081  168.7122 N.1     1  UNL1       -0.1908
     25 C         137.5589  144.0100  164.0769 C.3     1  UNL1        0.0769
     26 C         138.5967  144.7030  164.9092 C.3     1  UNL1        0.0437
     27 C         140.0047  144.1864  164.9353 C.ar    1  UNL1       -0.0207
     28 C         141.0576  144.8358  164.0870 C.ar    1  UNL1       -0.0034
     29 C         142.4657  144.3192  164.1131 C.ar    1  UNL1        0.0111
     30 C         142.8207  143.1533  164.9875 C.ar    1  UNL1        0.0577
     31 CL        144.2287  142.6367  165.0137 Cl      1  UNL1       -0.0822
     32 C         141.7677  142.5040  165.8359 C.ar    1  UNL1        0.0111
     33 C         140.3597  143.0205  165.8097 C.ar    1  UNL1       -0.0034
@<TRIPOS>BOND
     1    12    13    1
     2    13    11    1
     3    11    10    1
     4    10     1    1
     5     1     2    1
     6     2     3    1
     7     3     4    1
     8     4     5    1
     9     5    25    1
    10    25    26    1
    11    26    27    1
    12    27    28   ar
    13    28    29   ar
    14    29    30   ar
    15    30    31    1
    16    30    32   ar
    17    32    33   ar
    18     5     6    1
    19     6     7    1
    20     7     8    1
    21     7     9    1
    22    13    14    1
    23    14    15    2
    24    14    16    2
    25    14    17    1
    26    17    18   ar
    27    18    19   ar
    28    19    20   ar
    29    20    23    1
    30    23    24    3
    31    20    21   ar
    32    21    22   ar
    33     8     1    1
    34    22    17   ar
    35     9     3    1
    36    33    27   ar
@<TRIPOS>MOLECULE
*****
 33 36 0 0 0
SMALL
GASTEIGER

@<TRIPOS>ATOM
      1 N         140.3528  142.2965  159.0084 N.3     1  UNL1       -0.2673
      2 C         139.7883  143.3231  159.9451 C.3     1  UNL1        0.1035
      3 C         140.6726  143.9709  160.9690 C.3     1  UNL1        0.1470
      4 C         141.5569  144.6187  161.9930 C.3     1  UNL1        0.1035
      5 N         143.0056  144.2399  162.0802 N.3     1  UNL1       -0.2682
      6 C         143.5701  143.2132  161.1434 C.3     1  UNL1        0.1035
      7 C         142.6859  142.5655  160.1195 C.3     1  UNL1        0.1470
      8 C         141.8016  141.9177  159.0956 C.3     1  UNL1        0.1035
      9 O         142.1214  143.5921  161.0562 O.3     1  UNL1       -0.3530
     10 C         139.4686  141.6487  157.9844 C.3     1  UNL1        0.0916
     11 C         138.5964  140.4913  158.3712 C.3     1  UNL1        0.1131
     12 C         139.9357  138.2661  158.4409 C.3     1  UNL1        0.1149
     13 N         139.1721  139.3454  159.1494 N.3     1  UNL1       -0.1526
     14 S         138.9843  139.2789  160.6361 S.O2    1  UNL1        0.0634
     15 O         137.5021  139.4216  160.4552 O.2     1  UNL1       -0.1528
     16 O         140.4665  139.1363  160.8170 O.2     1  UNL1       -0.1528
     17 C         138.7965  139.2125  162.1228 C.ar    1  UNL1        0.1222
     18 C         139.0376  137.9243  162.8524 C.ar    1  UNL1        0.0206
     19 C         138.8497  137.8578  164.3391 C.ar    1  UNL1        0.0116
     20 C         138.4208  139.0795  165.0962 C.ar    1  UNL1        0.0685
     21 C         138.1797  140.3679  164.3667 C.ar    1  UNL1        0.0116
     22 C         138.3675  140.4343  162.8799 C.ar    1  UNL1        0.0206
     23 C         138.2330  139.0131  166.5829 C.1     1  UNL1        0.1004
     24 N         138.0451  138.9466  168.0696 N.1     1  UNL1       -0.1908
     25 C         143.8899  144.8877  163.1041 C.3     1  UNL1        0.0769
     26 C         143.9830  144.3124  164.4863 C.3     1  UNL1        0.0437
     27 C         143.5260  142.9077  164.7464 C.ar    1  UNL1       -0.0207
     28 C         144.4520  141.7571  164.4846 C.ar    1  UNL1       -0.0034
     29 C         143.9949  140.3522  164.7447 C.ar    1  UNL1        0.0111
     30 C         142.6119  140.0981  165.2667 C.ar    1  UNL1        0.0577
     31 CL        142.1548  138.6933  165.5268 Cl      1  UNL1       -0.0822
     32 C         141.6858  141.2487  165.5285 C.ar    1  UNL1        0.0111
     33 C         142.1429  142.6535  165.2684 C.ar    1  UNL1       -0.0034
@<TRIPOS>BOND
     1    12    13    1
     2    13    11    1
     3    11    10    1
     4    10     1    1
     5     1     2    1
     6     2     3    1
     7     3     4    1
     8     4     5    1
     9     5    25    1
    10    25    26    1
    11    26    27    1
    12    27    28   ar
    13    28    29   ar
    14    29    30   ar
    15    30    31    1
    16    30    32   ar
    17    32    33   ar
    18     5     6    1
    19     6     7    1
    20     7     8    1
    21     7     9    1
    22    13    14    1
    23    14    15    2
    24    14    16    2
    25    14    17    1
    26    17    18   ar
    27    18    19   ar
    28    19    20   ar
    29    20    23    1
    30    23    24    3
    31    20    21   ar
    32    21    22   ar
    33     8     1    1
    34    22    17   ar
    35     9     3    1
    36    33    27   ar
@<TRIPOS>MOLECULE
*****
 33 36 0 0 0
SMALL
GASTEIGER

@<TRIPOS>ATOM
      1 N         142.6933  144.1646  162.4589 N.3     1  UNL1       -0.2673
      2 C         141.2517  144.5084  162.6903 C.3     1  UNL1        0.1035
      3 C         140.1782  143.7965  161.9218 C.3     1  UNL1        0.1470
      4 C         139.1046  143.0845  161.1532 C.3     1  UNL1        0.1035
      5 N         139.4727  142.0288  160.1533 N.3     1  UNL1       -0.2682
      6 C         140.9144  141.6850  159.9219 C.3     1  UNL1        0.1035
      7 C         141.9879  142.3969  160.6904 C.3     1  UNL1        0.1470
      8 C         143.0614  143.1088  161.4589 C.3     1  UNL1        0.1035
      9 O         140.5463  142.7407  160.9218 O.3     1  UNL1       -0.3530
     10 C         143.7669  144.8765  163.2274 C.3     1  UNL1        0.0916
     11 C         144.1576  144.3938  164.5928 C.3     1  UNL1        0.1131
     12 C         145.1166  141.9991  164.2826 C.3     1  UNL1        0.1149
     13 N         144.1195  142.9280  164.9094 N.3     1  UNL1       -0.1526
     14 S         143.0842  142.3912  165.8528 S.O2    1  UNL1        0.0634
     15 O         142.3306  141.8084  164.6942 O.2     1  UNL1       -0.1528
     16 O         143.8379  142.9739  167.0114 O.2     1  UNL1       -0.1528
     17 C         142.0490  141.8543  166.7963 C.ar    1  UNL1        0.1222
     18 C         141.4932  140.4758  166.5944 C.ar    1  UNL1        0.0206
     19 C         140.4579  139.9390  167.5379 C.ar    1  UNL1        0.0116
     20 C         139.9785  140.7806  168.6831 C.ar    1  UNL1        0.0685
     21 C         140.5343  142.1592  168.8850 C.ar    1  UNL1        0.0116
     22 C         141.5695  142.6961  167.9416 C.ar    1  UNL1        0.0206
     23 C         138.9432  140.2438  169.6266 C.1     1  UNL1        0.1004
     24 N         137.9080  139.7070  170.5700 N.1     1  UNL1       -0.1908
     25 C         138.3992  141.3168  159.3847 C.3     1  UNL1        0.0769
     26 C         137.7962  140.0564  159.9307 C.3     1  UNL1        0.0437
     27 C         138.3824  139.4124  161.1519 C.ar    1  UNL1       -0.0207
     28 C         137.8840  139.7950  162.5140 C.ar    1  UNL1       -0.0034
     29 C         138.4701  139.1509  163.7354 C.ar    1  UNL1        0.0111
     30 C         139.5547  138.1243  163.5946 C.ar    1  UNL1        0.0577
     31 CL        140.1409  137.4803  164.8159 Cl      1  UNL1       -0.0822
     32 C         140.0532  137.7418  162.2325 C.ar    1  UNL1        0.0111
     33 C         139.4670  138.3858  161.0112 C.ar    1  UNL1       -0.0034
@<TRIPOS>BOND
     1    12    13    1
     2    13    11    1
     3    11    10    1
     4    10     1    1
     5     1     2    1
     6     2     3    1
     7     3     4    1
     8     4     5    1
     9     5    25    1
    10    25    26    1
    11    26    27    1
    12    27    28   ar
    13    28    29   ar
    14    29    30   ar
    15    30    31    1
    16    30    32   ar
    17    32    33   ar
    18     5     6    1
    19     6     7    1
    20     7     8    1
    21     7     9    1
    22    13    14    1
    23    14    15    2
    24    14    16    2
    25    14    17    1
    26    17    18   ar
    27    18    19   ar
    28    19    20   ar
    29    20    23    1
    30    23    24    3
    31    20    21   ar
    32    21    22   ar
    33     8     1    1
    34    22    17   ar
    35     9     3    1
    36    33    27   ar
@<TRIPOS>MOLECULE
*****
 33 36 0 0 0
SMALL
GASTEIGER

@<TRIPOS>ATOM
      1 N         142.2571  142.1015  159.0376 N.3     1  UNL1       -0.2673
      2 C         140.7573  142.0856  159.0212 C.3     1  UNL1        0.1035
      3 C         139.9878  142.8465  160.0599 C.3     1  UNL1        0.1470
      4 C         139.2183  143.6074  161.0986 C.3     1  UNL1        0.1035
      5 N         139.9486  144.3842  162.1537 N.3     1  UNL1       -0.2682
      6 C         141.4485  144.4001  162.1700 C.3     1  UNL1        0.1035
      7 C         142.2179  143.6392  161.1313 C.3     1  UNL1        0.1470
      8 C         142.9874  142.8783  160.0926 C.3     1  UNL1        0.1035
      9 O         140.7181  143.6233  161.1150 O.3     1  UNL1       -0.3530
     10 C         143.0266  141.3406  157.9988 C.3     1  UNL1        0.0916
     11 C         143.7378  140.0734  158.3709 C.3     1  UNL1        0.1131
     12 C         142.2615  137.9356  158.3545 C.3     1  UNL1        0.1149
     13 N         143.0073  138.9934  159.1126 N.3     1  UNL1       -0.1526
     14 S         143.0228  138.9713  160.6123 S.O2    1  UNL1        0.0634
     15 O         144.5079  138.7614  160.5939 O.2     1  UNL1       -0.1528
     16 O         141.5377  139.1812  160.6307 O.2     1  UNL1       -0.1528
     17 C         143.0383  138.9492  162.1121 C.ar    1  UNL1        0.1222
     18 C         143.9954  139.8246  162.8653 C.ar    1  UNL1        0.0206
     19 C         144.0109  139.8025  164.3650 C.ar    1  UNL1        0.0116
     20 C         143.0692  138.9049  165.1116 C.ar    1  UNL1        0.0685
     21 C         142.1119  138.0294  164.3584 C.ar    1  UNL1        0.0116
     22 C         142.0964  138.0515  162.8587 C.ar    1  UNL1        0.0206
     23 C         143.0846  138.8828  166.6114 C.1     1  UNL1        0.1004
     24 N         143.1001  138.8607  168.1111 N.1     1  UNL1       -0.1908
     25 C         139.1791  145.1450  163.1924 C.3     1  UNL1        0.0769
     26 C         139.3221  144.7887  164.6425 C.3     1  UNL1        0.0437
     27 C         139.3063  143.3500  165.0663 C.ar    1  UNL1       -0.0207
     28 C         140.3434  142.8381  166.0215 C.ar    1  UNL1       -0.0034
     29 C         140.3276  141.3993  166.4455 C.ar    1  UNL1        0.0111
     30 C         139.2748  140.4724  165.9141 C.ar    1  UNL1        0.0577
     31 CL        139.2590  139.0336  166.3379 Cl      1  UNL1       -0.0822
     32 C         138.2377  140.9843  164.9588 C.ar    1  UNL1        0.0111
     33 C         138.2535  142.4231  164.5350 C.ar    1  UNL1       -0.0034
@<TRIPOS>BOND
     1    12    13    1
     2    13    11    1
     3    11    10    1
     4    10     1    1
     5     1     2    1
     6     2     3    1
     7     3     4    1
     8     4     5    1
     9     5    25    1
    10    25    26    1
    11    26    27    1
    12    27    28   ar
    13    28    29   ar
    14    29    30   ar
    15    30    31    1
    16    30    32   ar
    17    32    33   ar
    18     5     6    1
    19     6     7    1
    20     7     8    1
    21     7     9    1
    22    13    14    1
    23    14    15    2
    24    14    16    2
    25    14    17    1
    26    17    18   ar
    27    18    19   ar
    28    19    20   ar
    29    20    23    1
    30    23    24    3
    31    20    21   ar
    32    21    22   ar
    33     8     1    1
    34    22    17   ar
    35     9     3    1
    36    33    27   ar
@<TRIPOS>MOLECULE
*****
 33 36 0 0 0
SMALL
GASTEIGER

@<TRIPOS>ATOM
      1 N         138.6247  143.2120  161.2842 N.3     1  UNL1       -0.2673
      2 C         139.4149  144.4853  161.3500 C.3     1  UNL1        0.1035
      3 C         140.0368  145.0471  160.1060 C.3     1  UNL1        0.1470
      4 C         140.6587  145.6090  158.8619 C.3     1  UNL1        0.1035
      5 N         140.4904  144.8975  157.5522 N.3     1  UNL1       -0.2682
      6 C         139.7002  143.6242  157.4864 C.3     1  UNL1        0.1035
      7 C         139.0783  143.0624  158.7304 C.3     1  UNL1        0.1470
      8 C         138.4564  142.5006  159.9744 C.3     1  UNL1        0.1035
      9 O         139.8685  144.3356  158.7962 O.3     1  UNL1       -0.3530
     10 C         138.0027  142.6501  162.5282 C.3     1  UNL1        0.0916
     11 C         137.9602  141.1659  162.7409 C.3     1  UNL1        0.1131
     12 C         139.9636  139.5131  162.6721 C.3     1  UNL1        0.1149
     13 N         139.0980  140.4743  163.4316 N.3     1  UNL1       -0.1526
     14 S         139.3703  140.7439  164.8818 S.O2    1  UNL1        0.0634
     15 O         138.0389  140.1540  165.2415 O.2     1  UNL1       -0.1528
     16 O         140.7018  141.3337  164.5222 O.2     1  UNL1       -0.1528
     17 C         139.6426  141.0135  166.3321 C.ar    1  UNL1        0.1222
     18 C         139.2545  140.0014  167.3688 C.ar    1  UNL1        0.0206
     19 C         139.5268  140.2710  168.8191 C.ar    1  UNL1        0.0116
     20 C         140.1872  141.5527  169.2325 C.ar    1  UNL1        0.0685
     21 C         140.5753  142.5649  168.1958 C.ar    1  UNL1        0.0116
     22 C         140.3031  142.2953  166.7455 C.ar    1  UNL1        0.0206
     23 C         140.4595  141.8223  170.6828 C.1     1  UNL1        0.1004
     24 N         140.7317  142.0919  172.1330 N.1     1  UNL1       -0.1908
     25 C         141.1123  145.4594  156.3082 C.3     1  UNL1        0.0769
     26 C         140.2411  145.9554  155.1923 C.3     1  UNL1        0.0437
     27 C         139.8021  147.3894  155.1643 C.ar    1  UNL1       -0.0207
     28 C         140.2367  148.2850  154.0423 C.ar    1  UNL1       -0.0034
     29 C         139.7977  149.7191  154.0142 C.ar    1  UNL1        0.0111
     30 C         138.9241  150.2576  155.1083 C.ar    1  UNL1        0.0577
     31 CL        138.4852  151.6916  155.0803 Cl      1  UNL1       -0.0822
     32 C         138.4895  149.3619  156.2304 C.ar    1  UNL1        0.0111
     33 C         138.9285  147.9279  156.2584 C.ar    1  UNL1       -0.0034
@<TRIPOS>BOND
     1    12    13    1
     2    13    11    1
     3    11    10    1
     4    10     1    1
     5     1     2    1
     6     2     3    1
     7     3     4    1
     8     4     5    1
     9     5    25    1
    10    25    26    1
    11    26    27    1
    12    27    28   ar
    13    28    29   ar
    14    29    30   ar
    15    30    31    1
    16    30    32   ar
    17    32    33   ar
    18     5     6    1
    19     6     7    1
    20     7     8    1
    21     7     9    1
    22    13    14    1
    23    14    15    2
    24    14    16    2
    25    14    17    1
    26    17    18   ar
    27    18    19   ar
    28    19    20   ar
    29    20    23    1
    30    23    24    3
    31    20    21   ar
    32    21    22   ar
    33     8     1    1
    34    22    17   ar
    35     9     3    1
    36    33    27   ar
@<TRIPOS>MOLECULE
*****
 33 36 0 0 0
SMALL
GASTEIGER

@<TRIPOS>ATOM
      1 N         142.1206  138.7821  160.6861 N.3     1  UNL1       -0.2673
      2 C         142.7861  138.4866  161.9975 C.3     1  UNL1        0.1035
      3 C         141.9560  138.1523  163.2012 C.3     1  UNL1        0.1470
      4 C         141.1259  137.8180  164.4051 C.3     1  UNL1        0.1035
      5 N         139.6302  137.7792  164.2975 N.3     1  UNL1       -0.2682
      6 C         138.9647  138.0748  162.9861 C.3     1  UNL1        0.1035
      7 C         139.7948  138.4091  161.7823 C.3     1  UNL1        0.1470
      8 C         140.6249  138.7433  160.5785 C.3     1  UNL1        0.1035
      9 O         140.4604  138.1135  163.0937 O.3     1  UNL1       -0.3530
     10 C         142.9507  139.1164  159.4822 C.3     1  UNL1        0.0916
     11 C         144.0215  140.1625  159.5766 C.3     1  UNL1        0.1131
     12 C         144.1693  142.4549  158.3628 C.3     1  UNL1        0.1149
     13 N         143.6592  141.6160  159.4968 N.3     1  UNL1       -0.1526
     14 S         142.7869  142.2304  160.5511 S.O2    1  UNL1        0.0634
     15 O         141.7016  142.4323  159.5355 O.2     1  UNL1       -0.1528
     16 O         143.8722  142.0286  161.5667 O.2     1  UNL1       -0.1528
     17 C         141.9146  142.8449  161.6054 C.ar    1  UNL1        0.1222
     18 C         142.3363  144.1163  162.2804 C.ar    1  UNL1        0.0206
     19 C         141.4640  144.7308  163.3346 C.ar    1  UNL1        0.0116
     20 C         140.1700  144.0738  163.7139 C.ar    1  UNL1        0.0685
     21 C         139.7482  142.8023  163.0390 C.ar    1  UNL1        0.0116
     22 C         140.6205  142.1879  161.9847 C.ar    1  UNL1        0.0206
     23 C         139.2977  144.6883  164.7682 C.1     1  UNL1        0.1004
     24 N         138.4254  145.3027  165.8225 N.1     1  UNL1       -0.1908
     25 C         138.8001  137.4450  165.5013 C.3     1  UNL1        0.0769
     26 C         138.0745  138.5321  166.2374 C.3     1  UNL1        0.0437
     27 C         138.8473  139.6296  166.9067 C.ar    1  UNL1       -0.0207
     28 C         139.4856  140.7078  166.0821 C.ar    1  UNL1       -0.0034
     29 C         140.2585  141.8055  166.7514 C.ar    1  UNL1        0.0111
     30 C         140.3930  141.8249  168.2453 C.ar    1  UNL1        0.0577
     31 CL        141.1658  142.9225  168.9146 Cl      1  UNL1       -0.0822
     32 C         139.7545  140.7466  169.0698 C.ar    1  UNL1        0.0111
     33 C         138.9817  139.6490  168.4005 C.ar    1  UNL1       -0.0034
@<TRIPOS>BOND
     1    12    13    1
     2    13    11    1
     3    11    10    1
     4    10     1    1
     5     1     2    1
     6     2     3    1
     7     3     4    1
     8     4     5    1
     9     5    25    1
    10    25    26    1
    11    26    27    1
    12    27    28   ar
    13    28    29   ar
    14    29    30   ar
    15    30    31    1
    16    30    32   ar
    17    32    33   ar
    18     5     6    1
    19     6     7    1
    20     7     8    1
    21     7     9    1
    22    13    14    1
    23    14    15    2
    24    14    16    2
    25    14    17    1
    26    17    18   ar
    27    18    19   ar
    28    19    20   ar
    29    20    23    1
    30    23    24    3
    31    20    21   ar
    32    21    22   ar
    33     8     1    1
    34    22    17   ar
    35     9     3    1
    36    33    27   ar
@<TRIPOS>MOLECULE
*****
 33 36 0 0 0
SMALL
GASTEIGER

@<TRIPOS>ATOM
      1 N         140.5027  139.2880  159.7711 N.3     1  UNL1       -0.2673
      2 C         139.3321  138.4095  160.0993 C.3     1  UNL1        0.1035
      3 C         139.0005  138.1054  161.5302 C.3     1  UNL1        0.1470
      4 C         138.6689  137.8012  162.9612 C.3     1  UNL1        0.1035
      5 N         139.5079  138.3757  164.0639 N.3     1  UNL1       -0.2682
      6 C         140.6786  139.2543  163.7356 C.3     1  UNL1        0.1035
      7 C         141.0101  139.5584  162.3047 C.3     1  UNL1        0.1470
      8 C         141.3417  139.8625  160.8738 C.3     1  UNL1        0.1035
      9 O         139.8395  138.6799  162.6329 O.3     1  UNL1       -0.3530
     10 C         140.8343  139.5922  158.3401 C.3     1  UNL1        0.0916
     11 C         140.9787  141.0157  157.8900 C.3     1  UNL1        0.1131
     12 C         138.9907  142.3860  156.9307 C.3     1  UNL1        0.1149
     13 N         139.8512  141.9842  158.0918 N.3     1  UNL1       -0.1526
     14 S         139.5842  142.5509  159.4547 S.O2    1  UNL1        0.0634
     15 O         138.2698  141.8294  159.4972 O.2     1  UNL1       -0.1528
     16 O         140.8985  143.2725  159.4122 O.2     1  UNL1       -0.1528
     17 C         139.3172  143.1177  160.8176 C.ar    1  UNL1        0.1222
     18 C         140.0539  144.3400  161.2791 C.ar    1  UNL1        0.0206
     19 C         139.7869  144.9067  162.6420 C.ar    1  UNL1        0.0116
     20 C         138.7832  144.2511  163.5434 C.ar    1  UNL1        0.0685
     21 C         138.0464  143.0287  163.0820 C.ar    1  UNL1        0.0116
     22 C         138.3134  142.4619  161.7191 C.ar    1  UNL1        0.0206
     23 C         138.5162  144.8178  164.9064 C.1     1  UNL1        0.1004
     24 N         138.2492  145.3845  166.2693 N.1     1  UNL1       -0.1908
     25 C         139.1764  138.0716  165.4948 C.3     1  UNL1        0.0769
     26 C         138.4075  139.0655  166.3141 C.3     1  UNL1        0.0437
     27 C         139.1366  140.1230  167.0886 C.ar    1  UNL1       -0.0207
     28 C         139.6931  141.3221  166.3798 C.ar    1  UNL1       -0.0034
     29 C         140.4223  142.3798  167.1543 C.ar    1  UNL1        0.0111
     30 C         140.5949  142.2382  168.6376 C.ar    1  UNL1        0.0577
     31 CL        141.3241  143.2958  169.4121 Cl      1  UNL1       -0.0822
     32 C         140.0384  141.0390  169.3464 C.ar    1  UNL1        0.0111
     33 C         139.3093  139.9815  168.5719 C.ar    1  UNL1       -0.0034
@<TRIPOS>BOND
     1    12    13    1
     2    13    11    1
     3    11    10    1
     4    10     1    1
     5     1     2    1
     6     2     3    1
     7     3     4    1
     8     4     5    1
     9     5    25    1
    10    25    26    1
    11    26    27    1
    12    27    28   ar
    13    28    29   ar
    14    29    30   ar
    15    30    31    1
    16    30    32   ar
    17    32    33   ar
    18     5     6    1
    19     6     7    1
    20     7     8    1
    21     7     9    1
    22    13    14    1
    23    14    15    2
    24    14    16    2
    25    14    17    1
    26    17    18   ar
    27    18    19   ar
    28    19    20   ar
    29    20    23    1
    30    23    24    3
    31    20    21   ar
    32    21    22   ar
    33     8     1    1
    34    22    17   ar
    35     9     3    1
    36    33    27   ar
