@<TRIPOS>MOLECULE
*****
 41 47 0 0 0
SMALL
GASTEIGER

@<TRIPOS>ATOM
      1 C         142.4004  142.6489  160.1692 C.3     1  UNL1        0.1707
      2 N         141.8793  143.2773  158.9108 N.3     1  UNL1       -0.2797
      3 C         140.7050  144.2087  158.9682 C.3     1  UNL1        0.1167
      4 C         140.0518  144.5118  160.2841 C.3     1  UNL1        0.0511
      5 C         140.5728  143.8834  161.5425 C.2     1  UNL1       -0.0037
      6 C         141.7471  142.9519  161.4850 C.2     1  UNL1        0.0800
      7 N         142.0374  142.4854  162.8808 N.2     1  UNL1       -0.2519
      8 C         141.0425  143.1286  163.8008 C.2     1  UNL1        0.0627
      9 C         140.8439  143.0391  165.2849 C.3     1  UNL1        0.0717
     10 C         139.7401  143.8137  165.9418 C.2     1  UNL1       -0.0198
     11 C         138.8349  144.6777  165.1147 C.2     1  UNL1       -0.0042
     12 C         139.0335  144.7671  163.6306 C.2     1  UNL1        0.0006
     13 C         140.1373  143.9926  162.9737 C.2     1  UNL1        0.0111
     14 H         141.6194  142.5139  158.2862 H       1  UNL1        0.1246
     15 C         143.2509  141.8145  161.0806 C.ar    1  UNL1        0.2487
     16 N         144.6271  142.1621  161.5656 N.ar    1  UNL1       -0.1089
     17 N         145.1012  141.0485  162.4518 N.ar    1  UNL1       -0.1011
     18 C         144.0180  140.0128  162.5144 C.ar    1  UNL1        0.2744
     19 S         144.0693  138.7290  163.2885 S.3     1  UNL1       -0.0830
     20 O         142.8744  140.4862  161.6669 O.2     1  UNL1       -0.4130
     21 H         145.2612  138.6381  163.9371 H       1  UNL1        0.1117
     22 C         140.1839  144.8372  157.7098 C.ar    1  UNL1        0.1319
     23 N         140.3805  146.2637  157.2899 N.ar    1  UNL1       -0.2282
     24 C         139.6928  146.4577  155.9710 C.ar    1  UNL1        0.1171
     25 C         139.0713  145.1510  155.5758 C.ar    1  UNL1        0.0942
     26 N         139.3748  144.1495  156.6504 N.ar    1  UNL1       -0.3385
     27 H         139.0925  143.2063  156.6590 H       1  UNL1        0.1672
     28 C         139.6366  147.7342  155.1853 C.ar    1  UNL1        0.1006
     29 C         140.2778  147.8103  153.8313 C.ar    1  UNL1        0.0230
     30 C         140.2216  149.0868  153.0456 C.ar    1  UNL1        0.0328
     31 C         139.5243  150.2871  153.6138 C.ar    1  UNL1        0.1592
     32 F         139.4681  151.5637  152.8280 F       1  UNL1       -0.2025
     33 C         138.8832  150.2110  154.9677 C.ar    1  UNL1        0.1284
     34 N         138.9393  148.9346  155.7535 N.ar    1  UNL1       -0.2399
     35 N         145.1297  141.8151  157.5384 N.ar    1  UNL1       -0.2497
     36 C         144.4258  142.7940  158.4308 C.ar    1  UNL1        0.0944
     37 C         143.3490  142.0560  159.1699 C.ar    1  UNL1        0.0439
     38 C         143.3875  140.6212  158.7342 C.ar    1  UNL1        0.1194
     39 N         144.4881  140.4723  157.7258 N.ar    1  UNL1       -0.1679
     40 C         147.4679  142.8733  157.1346 C.3     1  UNL1        0.0284
     41 C         146.2743  142.1248  156.6197 C.3     1  UNL1        0.1276
@<TRIPOS>BOND
     1    40    41    1
     2    41    35    1
     3    35    36   ar
     4    36    37   ar
     5     1    37    1
     6     1    15    1
     7    15    16   ar
     8    16    17   ar
     9    17    18   ar
    10    18    19    1
    11    18    20   ar
    12     1     2    1
    13     2     3    1
    14     3    22    1
    15    22    23   ar
    16    23    24   ar
    17    24    28    1
    18    28    29   ar
    19    29    30   ar
    20    30    31   ar
    21    31    32    1
    22    31    33   ar
    23    33    34   ar
    24    24    25   ar
    25    25    26   ar
    26     3     4    1
    27     4     5    1
    28     5     6    2
    29     6     7    1
    30     7     8    2
    31     8     9    1
    32     9    10    1
    33    10    11    2
    34    11    12    1
    35    12    13    2
    36    37    38   ar
    37    38    39   ar
    38    39    35   ar
    39     6     1    1
    40    13     8    1
    41    20    15   ar
    42    26    22   ar
    43    13     5    1
    44    34    28   ar
    45    19    21    1
    46     2    14    1
    47    26    27    1
@<TRIPOS>MOLECULE
*****
 41 47 0 0 0
SMALL
GASTEIGER

@<TRIPOS>ATOM
      1 C         140.7991  141.0298  159.7780 C.3     1  UNL1        0.1707
      2 N         141.1465  139.9386  158.8092 N.3     1  UNL1       -0.2797
      3 C         142.4630  139.2283  158.9202 C.3     1  UNL1        0.1167
      4 C         143.4321  139.6092  160.0000 C.3     1  UNL1        0.0511
      5 C         143.0847  140.7004  160.9687 C.2     1  UNL1       -0.0037
      6 C         141.7682  141.4107  160.8578 C.2     1  UNL1        0.0800
      7 N         141.7028  142.4385  161.9483 N.2     1  UNL1       -0.2519
      8 C         142.9788  142.3634  162.7333 C.2     1  UNL1        0.0627
      9 C         143.4733  143.1344  163.9211 C.3     1  UNL1        0.0717
     10 C         144.8219  142.8312  164.5035 C.2     1  UNL1       -0.0198
     11 C         145.6760  141.7569  163.8980 C.2     1  UNL1       -0.0042
     12 C         145.1815  140.9859  162.7102 C.2     1  UNL1        0.0006
     13 C         143.8329  141.2892  162.1279 C.2     1  UNL1        0.0111
     14 H         141.1120  140.3506  157.8768 H       1  UNL1        0.1246
     15 C         140.0214  142.1203  160.4533 C.ar    1  UNL1        0.2487
     16 N         139.9410  143.5507  160.0093 N.ar    1  UNL1       -0.1089
     17 N         139.0574  144.2862  160.9728 N.ar    1  UNL1       -0.1011
     18 C         138.5917  143.3102  162.0123 C.ar    1  UNL1        0.2744
     19 S         137.6887  143.6187  163.1697 S.3     1  UNL1       -0.0830
     20 O         139.1875  141.9715  161.6912 O.2     1  UNL1       -0.4130
     21 H         137.3471  144.9348  163.1399 H       1  UNL1        0.1117
     22 C         142.8105  138.1370  157.9514 C.ar    1  UNL1        0.1319
     23 N         142.4948  136.6797  158.1147 N.ar    1  UNL1       -0.2282
     24 C         143.0238  135.9535  156.9135 C.ar    1  UNL1        0.1171
     25 C         143.6664  136.9620  156.0079 C.ar    1  UNL1        0.0942
     26 N         143.5345  138.3115  156.6494 N.ar    1  UNL1       -0.3385
     27 H         143.8652  139.1623  156.2806 H       1  UNL1        0.1672
     28 C         142.9272  134.4778  156.6620 C.ar    1  UNL1        0.1006
     29 C         141.9046  133.9460  155.7021 C.ar    1  UNL1        0.0230
     30 C         141.8080  132.4704  155.4507 C.ar    1  UNL1        0.0328
     31 C         142.7339  131.5267  156.1591 C.ar    1  UNL1        0.1592
     32 F         142.6373  130.0510  155.9077 F       1  UNL1       -0.2025
     33 C         143.7565  132.0585  157.1191 C.ar    1  UNL1        0.1284
     34 N         143.8531  133.5341  157.3705 N.ar    1  UNL1       -0.2399
     35 N         137.9818  141.4940  157.1489 N.ar    1  UNL1       -0.2497
     36 C         139.3637  141.7865  157.6539 C.ar    1  UNL1        0.0944
     37 C         139.5600  141.0276  158.9328 C.ar    1  UNL1        0.0439
     38 C         138.2995  140.2661  159.2181 C.ar    1  UNL1        0.1194
     39 N         137.3241  140.5544  158.1155 N.ar    1  UNL1       -0.1679
     40 C         137.0512  143.5078  155.7965 C.3     1  UNL1        0.0284
     41 C         137.3658  142.0446  155.8968 C.3     1  UNL1        0.1276
@<TRIPOS>BOND
     1    40    41    1
     2    41    35    1
     3    35    36   ar
     4    36    37   ar
     5     1    37    1
     6     1    15    1
     7    15    16   ar
     8    16    17   ar
     9    17    18   ar
    10    18    19    1
    11    18    20   ar
    12     1     2    1
    13     2     3    1
    14     3    22    1
    15    22    23   ar
    16    23    24   ar
    17    24    28    1
    18    28    29   ar
    19    29    30   ar
    20    30    31   ar
    21    31    32    1
    22    31    33   ar
    23    33    34   ar
    24    24    25   ar
    25    25    26   ar
    26     3     4    1
    27     4     5    1
    28     5     6    2
    29     6     7    1
    30     7     8    2
    31     8     9    1
    32     9    10    1
    33    10    11    2
    34    11    12    1
    35    12    13    2
    36    37    38   ar
    37    38    39   ar
    38    39    35   ar
    39     6     1    1
    40    13     8    1
    41    20    15   ar
    42    26    22   ar
    43    13     5    1
    44    34    28   ar
    45    19    21    1
    46     2    14    1
    47    26    27    1
@<TRIPOS>MOLECULE
*****
 41 47 0 0 0
SMALL
GASTEIGER

@<TRIPOS>ATOM
      1 C         141.3359  141.2247  160.1720 C.3     1  UNL1        0.1707
      2 N         140.7934  142.0663  159.0552 N.3     1  UNL1       -0.2797
      3 C         140.9432  143.5582  159.0995 C.3     1  UNL1        0.1167
      4 C         141.6354  144.2083  160.2606 C.3     1  UNL1        0.0511
      5 C         142.1779  143.3667  161.3774 C.2     1  UNL1       -0.0037
      6 C         142.0282  141.8748  161.3331 C.2     1  UNL1        0.0800
      7 N         142.6599  141.3087  162.5701 N.2     1  UNL1       -0.2519
      8 C         143.2000  142.4506  163.3790 C.2     1  UNL1        0.0627
      9 C         143.9246  142.4966  164.6916 C.3     1  UNL1        0.0717
     10 C         144.3513  143.8145  165.2669 C.2     1  UNL1       -0.0198
     11 C         144.0534  145.0864  164.5297 C.2     1  UNL1       -0.0042
     12 C         143.3288  145.0404  163.2171 C.2     1  UNL1        0.0006
     13 C         142.9021  143.7226  162.6418 C.2     1  UNL1        0.0111
     14 H         139.7936  141.8723  158.9991 H       1  UNL1        0.1246
     15 C         141.6795  140.0107  160.9835 C.ar    1  UNL1        0.2487
     16 N         142.9465  139.2141  160.8851 N.ar    1  UNL1       -0.1089
     17 N         142.8664  138.0914  161.8767 N.ar    1  UNL1       -0.1011
     18 C         141.5497  138.1943  162.5879 C.ar    1  UNL1        0.2744
     19 S         141.0537  137.2727  163.6625 S.3     1  UNL1       -0.0830
     20 O         140.8162  139.3806  162.0358 O.2     1  UNL1       -0.4130
     21 H         141.9870  136.3132  163.9031 H       1  UNL1        0.1117
     22 C         140.4006  144.3999  157.9826 C.ar    1  UNL1        0.1319
     23 N         140.2051  145.8867  158.0141 N.ar    1  UNL1       -0.2282
     24 C         139.6420  146.3083  156.6893 C.ar    1  UNL1        0.1171
     25 C         139.4897  145.0821  155.8390 C.ar    1  UNL1        0.0942
     26 N         139.9585  143.9026  156.6383 N.ar    1  UNL1       -0.3385
     27 H         139.9735  142.9664  156.3341 H       1  UNL1        0.1672
     28 C         139.2927  147.7102  156.2856 C.ar    1  UNL1        0.1006
     29 C         139.6781  148.2177  154.9277 C.ar    1  UNL1        0.0230
     30 C         139.3288  149.6195  154.5240 C.ar    1  UNL1        0.0328
     31 C         138.5941  150.5137  155.4781 C.ar    1  UNL1        0.1592
     32 F         138.2448  151.9155  155.0745 F       1  UNL1       -0.2025
     33 C         138.2087  150.0062  156.8360 C.ar    1  UNL1        0.1284
     34 N         138.5580  148.6044  157.2398 N.ar    1  UNL1       -0.2399
     35 N         140.5576  138.3919  157.6352 N.ar    1  UNL1       -0.2497
     36 C         141.5205  139.3422  158.2832 C.ar    1  UNL1        0.0944
     37 C         140.7631  140.1529  159.2927 C.ar    1  UNL1        0.0439
     38 C         139.3321  139.7036  159.2686 C.ar    1  UNL1        0.1194
     39 N         139.2051  138.6153  158.2442 N.ar    1  UNL1       -0.1679
     40 C         139.8054  136.8585  155.6775 C.3     1  UNL1        0.0284
     41 C         140.8891  137.3935  156.5659 C.3     1  UNL1        0.1276
@<TRIPOS>BOND
     1    40    41    1
     2    41    35    1
     3    35    36   ar
     4    36    37   ar
     5     1    37    1
     6     1    15    1
     7    15    16   ar
     8    16    17   ar
     9    17    18   ar
    10    18    19    1
    11    18    20   ar
    12     1     2    1
    13     2     3    1
    14     3    22    1
    15    22    23   ar
    16    23    24   ar
    17    24    28    1
    18    28    29   ar
    19    29    30   ar
    20    30    31   ar
    21    31    32    1
    22    31    33   ar
    23    33    34   ar
    24    24    25   ar
    25    25    26   ar
    26     3     4    1
    27     4     5    1
    28     5     6    2
    29     6     7    1
    30     7     8    2
    31     8     9    1
    32     9    10    1
    33    10    11    2
    34    11    12    1
    35    12    13    2
    36    37    38   ar
    37    38    39   ar
    38    39    35   ar
    39     6     1    1
    40    13     8    1
    41    20    15   ar
    42    26    22   ar
    43    13     5    1
    44    34    28   ar
    45    19    21    1
    46     2    14    1
    47    26    27    1
@<TRIPOS>MOLECULE
*****
 41 47 0 0 0
SMALL
GASTEIGER

@<TRIPOS>ATOM
      1 C         141.6437  141.7998  158.9483 C.3     1  UNL1        0.1707
      2 N         141.5481  140.5346  158.1482 N.3     1  UNL1       -0.2797
      3 C         142.2706  139.3020  158.6050 C.3     1  UNL1        0.1167
      4 C         143.0888  139.3346  159.8618 C.3     1  UNL1        0.0511
      5 C         143.1844  140.5998  160.6619 C.2     1  UNL1       -0.0037
      6 C         142.4619  141.8324  160.2051 C.2     1  UNL1        0.0800
      7 N         142.7404  142.9259  161.1934 N.2     1  UNL1       -0.2519
      8 C         143.6351  142.3691  162.2609 C.2     1  UNL1        0.0627
      9 C         144.2352  142.9855  163.4897 C.3     1  UNL1        0.0717
     10 C         145.1099  142.1642  164.3899 C.2     1  UNL1       -0.0198
     11 C         145.3843  140.7265  164.0614 C.2     1  UNL1       -0.0042
     12 C         144.7841  140.1102  162.8327 C.2     1  UNL1        0.0006
     13 C         143.9095  140.9315  161.9324 C.2     1  UNL1        0.0111
     14 H         141.8954  140.7502  157.2137 H       1  UNL1        0.1246
     15 C         141.4294  143.2257  159.3618 C.ar    1  UNL1        0.2487
     16 N         142.1614  144.4192  158.8238 N.ar    1  UNL1       -0.1089
     17 N         141.6297  145.6395  159.5154 N.ar    1  UNL1       -0.1011
     18 C         140.5693  145.2001  160.4809 C.ar    1  UNL1        0.2744
     19 S         139.7725  146.0953  161.3830 S.3     1  UNL1       -0.0830
     20 O         140.4454  143.7082  160.3859 O.2     1  UNL1       -0.4130
     21 H         140.1574  147.3862  161.1957 H       1  UNL1        0.1117
     22 C         142.1750  138.0367  157.8049 C.ar    1  UNL1        0.1319
     23 N         143.0920  136.8545  157.9120 N.ar    1  UNL1       -0.2282
     24 C         142.6293  135.8187  156.9307 C.ar    1  UNL1        0.1171
     25 C         141.4265  136.3608  156.2171 C.ar    1  UNL1        0.0942
     26 N         141.1456  137.7316  156.7574 N.ar    1  UNL1       -0.3385
     27 H         140.4142  138.3266  156.4743 H       1  UNL1        0.1672
     28 C         143.2591  134.4764  156.7029 C.ar    1  UNL1        0.1006
     29 C         143.0548  133.7637  155.3989 C.ar    1  UNL1        0.0230
     30 C         143.6845  132.4215  155.1711 C.ar    1  UNL1        0.0328
     31 C         144.5185  131.7920  156.2473 C.ar    1  UNL1        0.1592
     32 F         145.1482  130.4498  156.0195 F       1  UNL1       -0.2025
     33 C         144.7227  132.5047  157.5513 C.ar    1  UNL1        0.1284
     34 N         144.0930  133.8469  157.7791 N.ar    1  UNL1       -0.2399
     35 N         138.7815  142.9071  156.5720 N.ar    1  UNL1       -0.2497
     36 C         139.2619  142.4255  157.9090 C.ar    1  UNL1        0.0944
     37 C         140.7512  142.2624  157.8351 C.ar    1  UNL1        0.0439
     38 C         141.1911  142.6432  156.4525 C.ar    1  UNL1        0.1194
     39 N         139.9738  143.0416  155.6719 N.ar    1  UNL1       -0.1679
     40 C         137.0575  144.0657  155.0114 C.3     1  UNL1        0.0284
     41 C         137.3585  143.2023  156.2005 C.3     1  UNL1        0.1276
@<TRIPOS>BOND
     1    40    41    1
     2    41    35    1
     3    35    36   ar
     4    36    37   ar
     5     1    37    1
     6     1    15    1
     7    15    16   ar
     8    16    17   ar
     9    17    18   ar
    10    18    19    1
    11    18    20   ar
    12     1     2    1
    13     2     3    1
    14     3    22    1
    15    22    23   ar
    16    23    24   ar
    17    24    28    1
    18    28    29   ar
    19    29    30   ar
    20    30    31   ar
    21    31    32    1
    22    31    33   ar
    23    33    34   ar
    24    24    25   ar
    25    25    26   ar
    26     3     4    1
    27     4     5    1
    28     5     6    2
    29     6     7    1
    30     7     8    2
    31     8     9    1
    32     9    10    1
    33    10    11    2
    34    11    12    1
    35    12    13    2
    36    37    38   ar
    37    38    39   ar
    38    39    35   ar
    39     6     1    1
    40    13     8    1
    41    20    15   ar
    42    26    22   ar
    43    13     5    1
    44    34    28   ar
    45    19    21    1
    46     2    14    1
    47    26    27    1
@<TRIPOS>MOLECULE
*****
 41 47 0 0 0
SMALL
GASTEIGER

@<TRIPOS>ATOM
      1 C         139.6646  141.5122  159.8832 C.3     1  UNL1        0.1707
      2 N         139.7521  140.6770  158.6403 N.3     1  UNL1       -0.2797
      3 C         139.6411  139.1838  158.7307 C.3     1  UNL1        0.1167
      4 C         139.4426  138.5259  160.0640 C.3     1  UNL1        0.0511
      5 C         139.3551  139.3611  161.3069 C.2     1  UNL1       -0.0037
      6 C         139.4661  140.8542  161.2165 C.2     1  UNL1        0.0800
      7 N         139.3434  141.4129  162.6031 N.2     1  UNL1       -0.2519
      8 C         139.1565  140.2651  163.5505 C.2     1  UNL1        0.0627
      9 C         138.9807  140.2108  165.0392 C.3     1  UNL1        0.0717
     10 C         138.8121  138.8884  165.7267 C.2     1  UNL1       -0.0198
     11 C         138.8194  137.6203  164.9256 C.2     1  UNL1       -0.0042
     12 C         138.9952  137.6745  163.4370 C.2     1  UNL1        0.0006
     13 C         139.1638  138.9970  162.7494 C.2     1  UNL1        0.0111
     14 H         140.6555  140.8797  158.2123 H       1  UNL1        0.1246
     15 C         139.6435  142.7218  160.7700 C.ar    1  UNL1        0.2487
     16 N         138.4511  143.5863  161.0537 N.ar    1  UNL1       -0.1089
     17 N         138.8818  144.6780  161.9880 N.ar    1  UNL1       -0.1011
     18 C         140.3405  144.4881  162.2816 C.ar    1  UNL1        0.2744
     19 S         141.1808  145.3551  163.1717 S.3     1  UNL1       -0.0830
     20 O         140.8112  143.2790  161.5288 O.2     1  UNL1       -0.4130
     21 H         140.4154  146.3561  163.6832 H       1  UNL1        0.1117
     22 C         139.7287  138.3486  157.4878 C.ar    1  UNL1        0.1319
     23 N         140.6784  137.2111  157.2551 N.ar    1  UNL1       -0.2282
     24 C         140.4185  136.6637  155.8829 C.ar    1  UNL1        0.1171
     25 C         139.3082  137.4628  155.2677 C.ar    1  UNL1        0.0942
     26 N         138.8818  138.5041  156.2595 N.ar    1  UNL1       -0.3385
     27 H         138.1710  139.1724  156.1276 H       1  UNL1        0.1672
     28 C         141.1420  135.5182  155.2391 C.ar    1  UNL1        0.1006
     29 C         141.0003  135.2747  153.7657 C.ar    1  UNL1        0.0230
     30 C         141.7238  134.1293  153.1219 C.ar    1  UNL1        0.0328
     31 C         142.5889  133.2274  153.9513 C.ar    1  UNL1        0.1592
     32 F         143.3124  132.0819  153.3075 F       1  UNL1       -0.2025
     33 C         142.7306  133.4709  155.4246 C.ar    1  UNL1        0.1284
     34 N         142.0072  134.6163  156.0685 N.ar    1  UNL1       -0.2399
     35 N         139.4790  144.0887  156.9862 N.ar    1  UNL1       -0.2497
     36 C         138.8824  142.9641  157.7796 C.ar    1  UNL1        0.0944
     37 C         139.8558  142.5902  158.8579 C.ar    1  UNL1        0.0439
     38 C         141.0540  143.4837  158.7308 C.ar    1  UNL1        0.1194
     39 N         140.8211  144.4098  157.5740 N.ar    1  UNL1       -0.1679
     40 C         137.4989  144.3266  155.3210 C.3     1  UNL1        0.0284
     41 C         138.8448  144.7721  155.8111 C.3     1  UNL1        0.1276
@<TRIPOS>BOND
     1    40    41    1
     2    41    35    1
     3    35    36   ar
     4    36    37   ar
     5     1    37    1
     6     1    15    1
     7    15    16   ar
     8    16    17   ar
     9    17    18   ar
    10    18    19    1
    11    18    20   ar
    12     1     2    1
    13     2     3    1
    14     3    22    1
    15    22    23   ar
    16    23    24   ar
    17    24    28    1
    18    28    29   ar
    19    29    30   ar
    20    30    31   ar
    21    31    32    1
    22    31    33   ar
    23    33    34   ar
    24    24    25   ar
    25    25    26   ar
    26     3     4    1
    27     4     5    1
    28     5     6    2
    29     6     7    1
    30     7     8    2
    31     8     9    1
    32     9    10    1
    33    10    11    2
    34    11    12    1
    35    12    13    2
    36    37    38   ar
    37    38    39   ar
    38    39    35   ar
    39     6     1    1
    40    13     8    1
    41    20    15   ar
    42    26    22   ar
    43    13     5    1
    44    34    28   ar
    45    19    21    1
    46     2    14    1
    47    26    27    1
@<TRIPOS>MOLECULE
*****
 41 47 0 0 0
SMALL
GASTEIGER

@<TRIPOS>ATOM
      1 C         141.5521  141.9767  161.6335 C.3     1  UNL1        0.1707
      2 N         141.8095  141.2555  160.3437 N.3     1  UNL1       -0.2797
      3 C         142.4097  139.8809  160.3599 C.3     1  UNL1        0.1167
      4 C         142.7525  139.2275  161.6659 C.3     1  UNL1        0.0511
      5 C         142.4950  139.9487  162.9557 C.2     1  UNL1       -0.0037
      6 C         141.8948  141.3233  162.9395 C.2     1  UNL1        0.0800
      7 N         141.7562  141.7852  164.3598 N.2     1  UNL1       -0.2519
      8 C         142.2707  140.6961  165.2538 C.2     1  UNL1        0.0627
      9 C         142.3823  140.5914  166.7459 C.3     1  UNL1        0.0717
     10 C         142.9507  139.3516  167.3702 C.2     1  UNL1       -0.0198
     11 C         143.4073  138.2165  166.5024 C.2     1  UNL1       -0.0042
     12 C         143.2956  138.3213  165.0103 C.2     1  UNL1        0.0006
     13 C         142.7273  139.5611  164.3860 C.2     1  UNL1        0.0111
     14 H         142.4378  141.8447  159.7972 H       1  UNL1        0.1246
     15 C         141.1239  143.0548  162.5845 C.ar    1  UNL1        0.2487
     16 N         141.9132  144.2790  162.9426 N.ar    1  UNL1       -0.1089
     17 N         141.1083  145.0787  163.9238 N.ar    1  UNL1       -0.1011
     18 C         139.8217  144.3488  164.1720 C.ar    1  UNL1        0.2744
     19 S         138.7190  144.7919  165.0873 S.3     1  UNL1       -0.0830
     20 O         139.8313  143.0979  163.3442 O.2     1  UNL1       -0.4130
     21 H         139.0604  145.9723  165.6701 H       1  UNL1        0.1117
     22 C         142.6672  139.1597  159.0700 C.ar    1  UNL1        0.1319
     23 N         142.5465  137.6813  158.8473 N.ar    1  UNL1       -0.2282
     24 C         142.8953  137.3981  157.4162 C.ar    1  UNL1        0.1171
     25 C         143.2316  138.7016  156.7544 C.ar    1  UNL1        0.0942
     26 N         143.0907  139.7903  157.7766 N.ar    1  UNL1       -0.3385
     27 H         143.2484  140.7502  157.6251 H       1  UNL1        0.1672
     28 C         142.9059  136.0484  156.7617 C.ar    1  UNL1        0.1006
     29 C         142.5406  135.9145  155.3130 C.ar    1  UNL1        0.0230
     30 C         142.5512  134.5649  154.6585 C.ar    1  UNL1        0.0328
     31 C         142.9271  133.3492  155.4527 C.ar    1  UNL1        0.1592
     32 F         142.9377  131.9995  154.7982 F       1  UNL1       -0.2025
     33 C         143.2924  133.4831  156.9014 C.ar    1  UNL1        0.1284
     34 N         143.2818  134.8327  157.5559 N.ar    1  UNL1       -0.2399
     35 N         141.0125  144.7468  158.9688 N.ar    1  UNL1       -0.2497
     36 C         141.9177  143.8685  159.7808 C.ar    1  UNL1        0.0944
     37 C         141.0607  143.0045  160.6578 C.ar    1  UNL1        0.0439
     38 C         139.6259  143.3489  160.3878 C.ar    1  UNL1        0.1194
     39 N         139.5962  144.4257  159.3439 N.ar    1  UNL1       -0.1679
     40 C         140.4720  146.2769  156.9398 C.3     1  UNL1        0.0284
     41 C         141.4475  145.7672  157.9589 C.3     1  UNL1        0.1276
@<TRIPOS>BOND
     1    40    41    1
     2    41    35    1
     3    35    36   ar
     4    36    37   ar
     5     1    37    1
     6     1    15    1
     7    15    16   ar
     8    16    17   ar
     9    17    18   ar
    10    18    19    1
    11    18    20   ar
    12     1     2    1
    13     2     3    1
    14     3    22    1
    15    22    23   ar
    16    23    24   ar
    17    24    28    1
    18    28    29   ar
    19    29    30   ar
    20    30    31   ar
    21    31    32    1
    22    31    33   ar
    23    33    34   ar
    24    24    25   ar
    25    25    26   ar
    26     3     4    1
    27     4     5    1
    28     5     6    2
    29     6     7    1
    30     7     8    2
    31     8     9    1
    32     9    10    1
    33    10    11    2
    34    11    12    1
    35    12    13    2
    36    37    38   ar
    37    38    39   ar
    38    39    35   ar
    39     6     1    1
    40    13     8    1
    41    20    15   ar
    42    26    22   ar
    43    13     5    1
    44    34    28   ar
    45    19    21    1
    46     2    14    1
    47    26    27    1
@<TRIPOS>MOLECULE
*****
 41 47 0 0 0
SMALL
GASTEIGER

@<TRIPOS>ATOM
      1 C         139.9806  141.7399  161.1548 C.3     1  UNL1        0.1707
      2 N         140.7137  141.1305  159.9967 N.3     1  UNL1       -0.2797
      3 C         141.0304  139.6644  159.9973 C.3     1  UNL1        0.1167
      4 C         140.6141  138.8076  161.1560 C.3     1  UNL1        0.0511
      5 C         139.8810  139.4170  162.3141 C.2     1  UNL1       -0.0037
      6 C         139.5643  140.8832  162.3135 C.2     1  UNL1        0.0800
      7 N         138.8353  141.2004  163.5855 N.2     1  UNL1       -0.2519
      8 C         138.7015  139.9303  164.3722 C.2     1  UNL1        0.0627
      9 C         138.0746  139.6350  165.7025 C.3     1  UNL1        0.0717
     10 C         138.0941  138.2375  166.2471 C.2     1  UNL1       -0.0198
     11 C         138.7404  137.1353  165.4613 C.2     1  UNL1       -0.0042
     12 C         139.3672  137.4306  164.1310 C.2     1  UNL1        0.0006
     13 C         139.3478  138.8280  163.5864 C.2     1  UNL1        0.0111
     14 H         141.6030  141.6239  159.9186 H       1  UNL1        0.1246
     15 C         139.3114  142.7713  162.0142 C.ar    1  UNL1        0.2487
     16 N         138.0435  143.5031  161.6876 N.ar    1  UNL1       -0.1089
     17 N         137.7412  144.4359  162.8227 N.ar    1  UNL1       -0.1011
     18 C         138.8223  144.2806  163.8508 C.ar    1  UNL1        0.2744
     19 S         138.9164  145.0236  165.1505 S.3     1  UNL1       -0.0830
     20 O         139.7928  143.2517  163.3511 O.2     1  UNL1       -0.4130
     21 H         137.8609  145.8738  165.2640 H       1  UNL1        0.1117
     22 C         141.7635  139.0549  158.8391 C.ar    1  UNL1        0.1319
     23 N         141.6358  137.6387  158.3617 N.ar    1  UNL1       -0.2282
     24 C         142.5463  137.4632  157.1826 C.ar    1  UNL1        0.1171
     25 C         143.2368  138.7709  156.9314 C.ar    1  UNL1        0.0942
     26 N         142.7530  139.7546  157.9552 N.ar    1  UNL1       -0.3385
     27 H         143.0353  140.6946  158.0333 H       1  UNL1        0.1672
     28 C         142.7335  136.2014  156.3933 C.ar    1  UNL1        0.1006
     29 C         142.3778  136.1683  154.9365 C.ar    1  UNL1        0.0230
     30 C         142.5650  134.9066  154.1472 C.ar    1  UNL1        0.0328
     31 C         143.1078  133.6780  154.8148 C.ar    1  UNL1        0.1592
     32 F         143.2950  132.4162  154.0255 F       1  UNL1       -0.2025
     33 C         143.4636  133.7110  156.2716 C.ar    1  UNL1        0.1284
     34 N         143.2764  134.9727  157.0609 N.ar    1  UNL1       -0.2399
     35 N         140.0333  144.5064  158.4327 N.ar    1  UNL1       -0.2497
     36 C         139.6022  143.1541  158.9183 C.ar    1  UNL1        0.0944
     37 C         140.1645  142.9549  160.2945 C.ar    1  UNL1        0.0439
     38 C         140.9431  144.1840  160.6596 C.ar    1  UNL1        0.1194
     39 N         140.8619  145.1429  159.5089 N.ar    1  UNL1       -0.1679
     40 C         140.4607  146.3058  156.6081 C.3     1  UNL1        0.0284
     41 C         139.6950  145.1152  157.1042 C.3     1  UNL1        0.1276
@<TRIPOS>BOND
     1    40    41    1
     2    41    35    1
     3    35    36   ar
     4    36    37   ar
     5     1    37    1
     6     1    15    1
     7    15    16   ar
     8    16    17   ar
     9    17    18   ar
    10    18    19    1
    11    18    20   ar
    12     1     2    1
    13     2     3    1
    14     3    22    1
    15    22    23   ar
    16    23    24   ar
    17    24    28    1
    18    28    29   ar
    19    29    30   ar
    20    30    31   ar
    21    31    32    1
    22    31    33   ar
    23    33    34   ar
    24    24    25   ar
    25    25    26   ar
    26     3     4    1
    27     4     5    1
    28     5     6    2
    29     6     7    1
    30     7     8    2
    31     8     9    1
    32     9    10    1
    33    10    11    2
    34    11    12    1
    35    12    13    2
    36    37    38   ar
    37    38    39   ar
    38    39    35   ar
    39     6     1    1
    40    13     8    1
    41    20    15   ar
    42    26    22   ar
    43    13     5    1
    44    34    28   ar
    45    19    21    1
    46     2    14    1
    47    26    27    1
@<TRIPOS>MOLECULE
*****
 41 47 0 0 0
SMALL
GASTEIGER

@<TRIPOS>ATOM
      1 C         139.5826  140.9416  159.4334 C.3     1  UNL1        0.1707
      2 N         139.8204  139.6084  158.7886 N.3     1  UNL1       -0.2797
      3 C         140.3405  139.5370  157.3835 C.3     1  UNL1        0.1167
      4 C         140.6228  140.7989  156.6232 C.3     1  UNL1        0.0511
      5 C         140.3850  142.1321  157.2680 C.2     1  UNL1       -0.0037
      6 C         139.8649  142.2035  158.6731 C.2     1  UNL1        0.0800
      7 N         139.7286  143.6505  159.0439 N.2     1  UNL1       -0.2519
      8 C         140.1645  144.4735  157.8680 C.2     1  UNL1        0.0627
      9 C         140.2444  145.9561  157.6549 C.3     1  UNL1        0.0717
     10 C         140.7299  146.5002  156.3441 C.2     1  UNL1       -0.0198
     11 C         141.1356  145.5617  155.2465 C.2     1  UNL1       -0.0042
     12 C         141.0557  144.0791  155.4596 C.2     1  UNL1        0.0006
     13 C         140.5701  143.5350  156.7704 C.2     1  UNL1        0.0111
     14 H         138.9285  139.1135  158.7980 H       1  UNL1        0.1246
     15 C         139.2007  141.9595  160.4670 C.ar    1  UNL1        0.2487
     16 N         137.8573  142.6114  160.6082 N.ar    1  UNL1       -0.1089
     17 N         137.9216  143.5589  161.7693 N.ar    1  UNL1       -0.1011
     18 C         139.3048  143.4926  162.3456 C.ar    1  UNL1        0.2744
     19 S         139.8090  144.2771  163.5205 S.3     1  UNL1       -0.0830
     20 O         140.0954  142.5041  161.5407 O.2     1  UNL1       -0.4130
     21 H         138.8129  145.0715  163.9964 H       1  UNL1        0.1117
     22 C         140.5783  138.2037  156.7386 C.ar    1  UNL1        0.1319
     23 N         141.6942  137.2547  157.0614 N.ar    1  UNL1       -0.2282
     24 C         141.5475  136.0498  156.1800 C.ar    1  UNL1        0.1171
     25 C         140.3411  136.2542  155.3125 C.ar    1  UNL1        0.0942
     26 N         139.7420  137.5854  155.6577 N.ar    1  UNL1       -0.3385
     27 H         138.9407  137.9834  155.2469 H       1  UNL1        0.1672
     28 C         142.4491  134.8510  156.1683 C.ar    1  UNL1        0.1006
     29 C         142.4671  133.9377  154.9785 C.ar    1  UNL1        0.0230
     30 C         143.3686  132.7390  154.9667 C.ar    1  UNL1        0.0328
     31 C         144.2522  132.4536  156.1447 C.ar    1  UNL1        0.1592
     32 F         145.1539  131.2548  156.1329 F       1  UNL1       -0.2025
     33 C         144.2343  133.3669  157.3344 C.ar    1  UNL1        0.1284
     34 N         143.3328  134.5656  157.3462 N.ar    1  UNL1       -0.2399
     35 N         139.2449  138.5741  162.4905 N.ar    1  UNL1       -0.2497
     36 C         140.0819  139.4000  161.5592 C.ar    1  UNL1        0.0944
     37 C         139.1677  140.0333  160.5527 C.ar    1  UNL1        0.0439
     38 C         137.7657  139.5987  160.8619 C.ar    1  UNL1        0.1194
     39 N         137.8134  138.6969  162.0596 N.ar    1  UNL1       -0.1679
     40 C         141.1257  137.1695  163.6039 C.3     1  UNL1        0.0284
     41 C         139.7506  137.7670  163.6494 C.3     1  UNL1        0.1276
@<TRIPOS>BOND
     1    40    41    1
     2    41    35    1
     3    35    36   ar
     4    36    37   ar
     5     1    37    1
     6     1    15    1
     7    15    16   ar
     8    16    17   ar
     9    17    18   ar
    10    18    19    1
    11    18    20   ar
    12     1     2    1
    13     2     3    1
    14     3    22    1
    15    22    23   ar
    16    23    24   ar
    17    24    28    1
    18    28    29   ar
    19    29    30   ar
    20    30    31   ar
    21    31    32    1
    22    31    33   ar
    23    33    34   ar
    24    24    25   ar
    25    25    26   ar
    26     3     4    1
    27     4     5    1
    28     5     6    2
    29     6     7    1
    30     7     8    2
    31     8     9    1
    32     9    10    1
    33    10    11    2
    34    11    12    1
    35    12    13    2
    36    37    38   ar
    37    38    39   ar
    38    39    35   ar
    39     6     1    1
    40    13     8    1
    41    20    15   ar
    42    26    22   ar
    43    13     5    1
    44    34    28   ar
    45    19    21    1
    46     2    14    1
    47    26    27    1
@<TRIPOS>MOLECULE
*****
 41 47 0 0 0
SMALL
GASTEIGER

@<TRIPOS>ATOM
      1 C         142.4849  139.9623  159.4637 C.3     1  UNL1        0.1707
      2 N         143.2254  140.3888  158.2310 N.3     1  UNL1       -0.2797
      3 C         144.1309  141.5838  158.2758 C.3     1  UNL1        0.1167
      4 C         144.2958  142.3524  159.5533 C.3     1  UNL1        0.0511
      5 C         143.5553  141.9259  160.7861 C.2     1  UNL1       -0.0037
      6 C         142.6498  140.7308  160.7413 C.2     1  UNL1        0.0800
      7 N         142.0540  140.5494  162.1058 N.2     1  UNL1       -0.2519
      8 C         142.5912  141.6323  162.9940 C.2     1  UNL1        0.0627
      9 C         142.3553  141.9536  164.4400 C.3     1  UNL1        0.0717
     10 C         143.0473  143.1256  165.0704 C.2     1  UNL1       -0.0198
     11 C         143.9751  143.9764  164.2547 C.2     1  UNL1       -0.0042
     12 C         144.2110  143.6551  162.8087 C.2     1  UNL1        0.0006
     13 C         143.5190  142.4830  162.1783 C.2     1  UNL1        0.0111
     14 H         142.5229  140.5783  157.5162 H       1  UNL1        0.1246
     15 C         141.5777  139.1738  160.3611 C.ar    1  UNL1        0.2487
     16 N         141.9656  137.9732  161.1721 N.ar    1  UNL1       -0.1089
     17 N         140.7508  137.5049  161.9172 N.ar    1  UNL1       -0.1011
     18 C         139.6122  138.4161  161.5666 C.ar    1  UNL1        0.2744
     19 S         138.2088  138.3139  162.0865 S.3     1  UNL1       -0.0830
     20 O         140.1232  139.4476  160.6049 O.2     1  UNL1       -0.4130
     21 H         138.1164  137.2567  162.9370 H       1  UNL1        0.1117
     22 C         144.8714  142.0104  157.0430 C.ar    1  UNL1        0.1319
     23 N         146.3498  141.8931  156.8178 N.ar    1  UNL1       -0.2282
     24 C         146.6557  142.4393  155.4546 C.ar    1  UNL1        0.1171
     25 C         145.3664  142.8941  154.8374 C.ar    1  UNL1        0.0942
     26 N         144.2637  142.6290  155.8191 N.ar    1  UNL1       -0.3385
     27 H         143.3087  142.8263  155.6838 H       1  UNL1        0.1672
     28 C         148.0127  142.5171  154.8201 C.ar    1  UNL1        0.1006
     29 C         149.1498  141.7153  155.3807 C.ar    1  UNL1        0.0230
     30 C         150.5067  141.7930  154.7462 C.ar    1  UNL1        0.0328
     31 C         150.7266  142.6725  153.5512 C.ar    1  UNL1        0.1592
     32 F         152.0836  142.7503  152.9167 F       1  UNL1       -0.2025
     33 C         149.5896  143.4743  152.9907 C.ar    1  UNL1        0.1284
     34 N         148.2326  143.3966  153.6251 N.ar    1  UNL1       -0.2399
     35 N         141.9263  136.9637  157.0634 N.ar    1  UNL1       -0.2497
     36 C         142.7910  137.7374  158.0141 C.ar    1  UNL1        0.0944
     37 C         142.0049  138.9199  158.4979 C.ar    1  UNL1        0.0439
     38 C         140.6546  138.8769  157.8461 C.ar    1  UNL1        0.1194
     39 N         140.6060  137.6679  156.9595 N.ar    1  UNL1       -0.1679
     40 C         143.7595  135.4153  156.0674 C.3     1  UNL1        0.0284
     41 C         142.3141  135.7064  156.3430 C.3     1  UNL1        0.1276
@<TRIPOS>BOND
     1    40    41    1
     2    41    35    1
     3    35    36   ar
     4    36    37   ar
     5     1    37    1
     6     1    15    1
     7    15    16   ar
     8    16    17   ar
     9    17    18   ar
    10    18    19    1
    11    18    20   ar
    12     1     2    1
    13     2     3    1
    14     3    22    1
    15    22    23   ar
    16    23    24   ar
    17    24    28    1
    18    28    29   ar
    19    29    30   ar
    20    30    31   ar
    21    31    32    1
    22    31    33   ar
    23    33    34   ar
    24    24    25   ar
    25    25    26   ar
    26     3     4    1
    27     4     5    1
    28     5     6    2
    29     6     7    1
    30     7     8    2
    31     8     9    1
    32     9    10    1
    33    10    11    2
    34    11    12    1
    35    12    13    2
    36    37    38   ar
    37    38    39   ar
    38    39    35   ar
    39     6     1    1
    40    13     8    1
    41    20    15   ar
    42    26    22   ar
    43    13     5    1
    44    34    28   ar
    45    19    21    1
    46     2    14    1
    47    26    27    1
