@<TRIPOS>MOLECULE
*****
 30 35 0 0 0
SMALL
GASTEIGER

@<TRIPOS>ATOM
      1 N         137.6663  138.2647  166.9123 N.pl3   1  UNL1       -0.3133
      2 C         138.6873  138.2357  165.8138 C.2     1  UNL1        0.2770
      3 N         139.8850  139.1313  165.6995 N.2     1  UNL1       -0.2202
      4 C         140.6278  138.7552  164.4518 C.3     1  UNL1        0.1580
      5 C         139.8890  137.6270  163.7949 C.3     1  UNL1        0.2351
      6 O         138.6897  137.3059  164.6367 O.2     1  UNL1       -0.4478
      7 C         141.2558  139.8802  165.2198 C.ar    1  UNL1        0.0357
      8 C         140.6235  140.3655  166.4906 C.ar    1  UNL1        0.0007
      9 C         141.2515  141.4906  167.2586 C.ar    1  UNL1        0.0029
     10 C         142.5118  142.1302  166.7559 C.ar    1  UNL1        0.0032
     11 C         143.1441  141.6449  165.4852 C.ar    1  UNL1        0.0366
     12 C         142.5160  140.5198  164.7171 C.ar    1  UNL1        0.1360
     13 O         143.1483  140.0345  163.4464 O.3     1  UNL1       -0.4826
     14 C         142.5202  138.9094  162.6784 C.3     1  UNL1        0.1395
     15 C         142.0099  137.7999  161.8075 C.3     1  UNL1        0.0403
     16 C         142.9481  137.6531  160.6464 C.3     1  UNL1        0.0037
     17 C         144.0382  138.6720  160.7996 C.3     1  UNL1        0.0037
     18 C         143.7738  139.4484  162.0555 C.3     1  UNL1        0.0403
     19 C         141.2600  138.2698  163.1810 C.3     1  UNL1        0.1141
     20 C         141.4352  138.5837  163.3953 C.3     1  UNL1        0.1501
     21 O         141.2511  138.2538  163.1701 O.3     1  UNL1       -0.3532
     22 C         141.4352  138.5837  163.3953 C.3     1  UNL1        0.1501
     23 H         137.7512  138.9155  167.6461 H       1  UNL1        0.1466
     24 H         136.9114  137.6329  166.8994 H       1  UNL1        0.1466
     25 C         140.6193  141.9759  168.5293 C.ar    1  UNL1        0.0384
     26 C         139.7966  141.0390  169.3631 C.ar    1  UNL1        0.1022
     27 N         139.1643  141.5243  170.6338 N.ar    1  UNL1       -0.2224
     28 C         139.3549  142.9466  171.0708 C.ar    1  UNL1        0.1989
     29 N         140.1777  143.8836  170.2370 N.ar    1  UNL1       -0.2224
     30 C         140.8099  143.3982  168.9662 C.ar    1  UNL1        0.1022
@<TRIPOS>BOND
     1     1     2    1
     2     2     3    2
     3     3     4    1
     4     4     5    1
     5     5     6    1
     6     4     7    1
     7     7     8   ar
     8     8     9   ar
     9     9    25    1
    10    25    26   ar
    11    26    27   ar
    12    27    28   ar
    13    28    29   ar
    14    29    30   ar
    15     9    10   ar
    16    10    11   ar
    17    11    12   ar
    18    12    13    1
    19    13    14    1
    20    14    15    1
    21    15    16    1
    22    16    17    1
    23    17    18    1
    24    14    19    1
    25    19    20    1
    26    20    21    1
    27    21    22    1
    28     6     2    1
    29    12     7   ar
    30    18    14    1
    31    22    19    1
    32    19     4    1
    33    30    25   ar
    34     1    23    1
    35     1    24    1
@<TRIPOS>MOLECULE
*****
 30 35 0 0 0
SMALL
GASTEIGER

@<TRIPOS>ATOM
      1 N         144.3850  140.4361  162.0382 N.pl3   1  UNL1       -0.3133
      2 C         143.9360  140.2511  163.4574 C.2     1  UNL1        0.2770
      3 N         142.8920  141.0632  164.1648 N.2     1  UNL1       -0.2202
      4 C         142.7629  140.5356  165.5630 C.3     1  UNL1        0.1580
      5 C         143.7272  139.3973  165.7197 C.3     1  UNL1        0.2351
      6 O         144.4522  139.2215  164.4184 O.2     1  UNL1       -0.4478
      7 C         141.8508  141.6869  165.2588 C.ar    1  UNL1        0.0357
      8 C         141.8688  142.3188  163.8985 C.ar    1  UNL1        0.0007
      9 C         140.9568  143.4702  163.5944 C.ar    1  UNL1        0.0029
     10 C         140.0268  143.9895  164.6504 C.ar    1  UNL1        0.0032
     11 C         140.0087  143.3576  166.0107 C.ar    1  UNL1        0.0366
     12 C         140.9208  142.2063  166.3149 C.ar    1  UNL1        0.1360
     13 O         140.9028  141.5743  167.6752 O.3     1  UNL1       -0.4826
     14 C         141.8149  140.4229  167.9793 C.3     1  UNL1        0.1395
     15 C         142.6648  139.2711  168.4277 C.3     1  UNL1        0.0403
     16 C         142.3190  138.9681  169.8555 C.3     1  UNL1        0.0037
     17 C         141.2554  139.9327  170.2896 C.3     1  UNL1        0.0037
     18 C         140.9439  140.8319  169.1301 C.3     1  UNL1        0.0403
     19 C         142.7449  139.9036  166.9233 C.3     1  UNL1        0.1141
     20 C         142.4905  140.2248  166.8384 C.3     1  UNL1        0.1501
     21 O         142.7579  139.8871  166.9276 O.3     1  UNL1       -0.3532
     22 C         142.4905  140.2248  166.8384 C.3     1  UNL1        0.1501
     23 H         143.9842  141.1438  161.4834 H       1  UNL1        0.1466
     24 H         145.0804  139.8498  161.6616 H       1  UNL1        0.1466
     25 C         140.9747  144.1022  162.2341 C.ar    1  UNL1        0.0384
     26 C         142.1712  143.9346  161.3451 C.ar    1  UNL1        0.1022
     27 N         142.1892  144.5666  159.9848 N.ar    1  UNL1       -0.2224
     28 C         141.0107  145.3661  159.5136 C.ar    1  UNL1        0.1989
     29 N         139.8142  145.5337  160.4027 N.ar    1  UNL1       -0.2224
     30 C         139.7963  144.9017  161.7630 C.ar    1  UNL1        0.1022
@<TRIPOS>BOND
     1     1     2    1
     2     2     3    2
     3     3     4    1
     4     4     5    1
     5     5     6    1
     6     4     7    1
     7     7     8   ar
     8     8     9   ar
     9     9    25    1
    10    25    26   ar
    11    26    27   ar
    12    27    28   ar
    13    28    29   ar
    14    29    30   ar
    15     9    10   ar
    16    10    11   ar
    17    11    12   ar
    18    12    13    1
    19    13    14    1
    20    14    15    1
    21    15    16    1
    22    16    17    1
    23    17    18    1
    24    14    19    1
    25    19    20    1
    26    20    21    1
    27    21    22    1
    28     6     2    1
    29    12     7   ar
    30    18    14    1
    31    22    19    1
    32    19     4    1
    33    30    25   ar
    34     1    23    1
    35     1    24    1
@<TRIPOS>MOLECULE
*****
 30 35 0 0 0
SMALL
GASTEIGER

@<TRIPOS>ATOM
      1 N         137.3005  140.6546  163.3455 N.pl3   1  UNL1       -0.3133
      2 C         138.1603  140.5174  164.5669 C.2     1  UNL1        0.2770
      3 N         139.4781  141.1956  164.7981 N.2     1  UNL1       -0.2202
      4 C         139.9856  140.7754  166.1457 C.3     1  UNL1        0.1580
      5 C         138.9813  139.8375  166.7473 C.3     1  UNL1        0.2351
      6 O         137.8533  139.6781  165.7715 O.2     1  UNL1       -0.4478
      7 C         140.8944  141.7225  165.4197 C.ar    1  UNL1        0.0357
      8 C         140.5173  142.2292  164.0591 C.ar    1  UNL1        0.0007
      9 C         141.4261  143.1763  163.3332 C.ar    1  UNL1        0.0029
     10 C         142.7119  143.6167  163.9677 C.ar    1  UNL1        0.0032
     11 C         143.0891  143.1099  165.3283 C.ar    1  UNL1        0.0366
     12 C         142.1802  142.1628  166.0543 C.ar    1  UNL1        0.1360
     13 O         142.5573  141.6561  167.4148 O.3     1  UNL1       -0.4826
     14 C         141.6485  140.7090  168.1408 C.3     1  UNL1        0.1395
     15 C         140.8450  139.7630  168.9831 C.3     1  UNL1        0.0403
     16 C         141.5951  139.5286  170.2608 C.3     1  UNL1        0.0037
     17 C         142.8622  140.3297  170.2080 C.3     1  UNL1        0.0037
     18 C         142.8952  141.0592  168.8977 C.3     1  UNL1        0.0403
     19 C         140.3626  140.2686  167.5062 C.3     1  UNL1        0.1141
     20 C         140.6161  140.5329  167.3037 C.3     1  UNL1        0.1501
     21 O         140.3497  140.2551  167.5166 O.3     1  UNL1       -0.3532
     22 C         140.6161  140.5329  167.3037 C.3     1  UNL1        0.1501
     23 H         137.5891  141.2327  162.6027 H       1  UNL1        0.1466
     24 H         136.4476  140.1665  163.2866 H       1  UNL1        0.1466
     25 C         141.0491  143.6831  161.9726 C.ar    1  UNL1        0.0384
     26 C         142.0480  144.4443  161.1526 C.ar    1  UNL1        0.1022
     27 N         141.6711  144.9511  159.7920 N.ar    1  UNL1       -0.2224
     28 C         140.2951  144.6967  159.2515 C.ar    1  UNL1        0.1989
     29 N         139.2961  143.9355  160.0718 N.ar    1  UNL1       -0.2224
     30 C         139.6731  143.4287  161.4323 C.ar    1  UNL1        0.1022
@<TRIPOS>BOND
     1     1     2    1
     2     2     3    2
     3     3     4    1
     4     4     5    1
     5     5     6    1
     6     4     7    1
     7     7     8   ar
     8     8     9   ar
     9     9    25    1
    10    25    26   ar
    11    26    27   ar
    12    27    28   ar
    13    28    29   ar
    14    29    30   ar
    15     9    10   ar
    16    10    11   ar
    17    11    12   ar
    18    12    13    1
    19    13    14    1
    20    14    15    1
    21    15    16    1
    22    16    17    1
    23    17    18    1
    24    14    19    1
    25    19    20    1
    26    20    21    1
    27    21    22    1
    28     6     2    1
    29    12     7   ar
    30    18    14    1
    31    22    19    1
    32    19     4    1
    33    30    25   ar
    34     1    23    1
    35     1    24    1
@<TRIPOS>MOLECULE
*****
 30 35 0 0 0
SMALL
GASTEIGER

@<TRIPOS>ATOM
      1 N         144.1498  138.7615  162.4413 N.pl3   1  UNL1       -0.3133
      2 C         143.5722  138.9898  163.8067 C.2     1  UNL1        0.2770
      3 N         142.1418  139.3189  164.1152 N.2     1  UNL1       -0.2202
      4 C         142.0092  139.4617  165.6025 C.3     1  UNL1        0.1580
      5 C         143.3580  139.2207  166.2132 C.3     1  UNL1        0.2351
      6 O         144.3239  138.9291  165.1034 O.2     1  UNL1       -0.4478
      7 C         140.7283  139.6774  164.8524 C.ar    1  UNL1        0.0357
      8 C         140.7073  139.5668  163.3566 C.ar    1  UNL1        0.0007
      9 C         139.4264  139.7825  162.6065 C.ar    1  UNL1        0.0029
     10 C         138.1665  140.1088  163.3522 C.ar    1  UNL1        0.0032
     11 C         138.1874  140.2195  164.8480 C.ar    1  UNL1        0.0366
     12 C         139.4683  140.0037  165.5981 C.ar    1  UNL1        0.1360
     13 O         139.4894  140.1143  167.0939 O.3     1  UNL1       -0.4826
     14 C         140.7703  139.8986  167.8440 C.3     1  UNL1        0.1395
     15 C         141.9695  139.7104  168.7252 C.3     1  UNL1        0.0403
     16 C         141.5361  139.9123  170.1470 C.3     1  UNL1        0.0037
     17 C         140.0691  140.2253  170.1444 C.3     1  UNL1        0.0037
     18 C         139.5958  140.2168  168.7211 C.3     1  UNL1        0.0403
     19 C         142.0302  139.5723  167.0983 C.3     1  UNL1        0.1141
     20 C         141.6729  139.6324  166.8890 C.3     1  UNL1        0.1501
     21 O         142.0485  139.5692  167.1090 O.3     1  UNL1       -0.3532
     22 C         141.6729  139.6324  166.8890 C.3     1  UNL1        0.1501
     23 H         143.5727  138.8235  161.6461 H       1  UNL1        0.1466
     24 H         145.1059  138.5496  162.3404 H       1  UNL1        0.1466
     25 C         139.4054  139.6719  161.1108 C.ar    1  UNL1        0.0384
     26 C         138.1470  139.9774  160.3538 C.ar    1  UNL1        0.1022
     27 N         138.1258  139.8668  158.8580 N.ar    1  UNL1       -0.2224
     28 C         139.3632  139.4507  158.1192 C.ar    1  UNL1        0.1989
     29 N         140.6217  139.1452  158.8762 N.ar    1  UNL1       -0.2224
     30 C         140.6427  139.2558  160.3720 C.ar    1  UNL1        0.1022
@<TRIPOS>BOND
     1     1     2    1
     2     2     3    2
     3     3     4    1
     4     4     5    1
     5     5     6    1
     6     4     7    1
     7     7     8   ar
     8     8     9   ar
     9     9    25    1
    10    25    26   ar
    11    26    27   ar
    12    27    28   ar
    13    28    29   ar
    14    29    30   ar
    15     9    10   ar
    16    10    11   ar
    17    11    12   ar
    18    12    13    1
    19    13    14    1
    20    14    15    1
    21    15    16    1
    22    16    17    1
    23    17    18    1
    24    14    19    1
    25    19    20    1
    26    20    21    1
    27    21    22    1
    28     6     2    1
    29    12     7   ar
    30    18    14    1
    31    22    19    1
    32    19     4    1
    33    30    25   ar
    34     1    23    1
    35     1    24    1
@<TRIPOS>MOLECULE
*****
 30 35 0 0 0
SMALL
GASTEIGER

@<TRIPOS>ATOM
      1 N         143.9832  143.7536  161.6569 N.pl3   1  UNL1       -0.3133
      2 C         143.7917  143.3511  163.0891 C.2     1  UNL1        0.2770
      3 N         143.3388  142.0058  163.5738 N.2     1  UNL1       -0.2202
      4 C         143.2866  142.0465  165.0724 C.3     1  UNL1        0.1580
      5 C         143.7072  143.4170  165.5138 C.3     1  UNL1        0.2351
      6 O         144.0193  144.2233  164.2880 O.2     1  UNL1       -0.4478
      7 C         142.8884  140.7255  164.4838 C.ar    1  UNL1        0.0357
      8 C         142.8923  140.5358  162.9958 C.ar    1  UNL1        0.0007
      9 C         142.4941  139.2149  162.4071 C.ar    1  UNL1        0.0029
     10 C         142.0919  138.0838  163.3064 C.ar    1  UNL1        0.0032
     11 C         142.0879  138.2735  164.7944 C.ar    1  UNL1        0.0366
     12 C         142.4862  139.5944  165.3830 C.ar    1  UNL1        0.1360
     13 O         142.4823  139.7842  166.8710 O.3     1  UNL1       -0.4826
     14 C         142.8805  141.1051  167.4596 C.3     1  UNL1        0.1395
     15 C         143.2521  142.3620  168.1891 C.3     1  UNL1        0.0403
     16 C         143.1055  142.1049  169.6596 C.3     1  UNL1        0.0037
     17 C         142.6434  140.6892  169.8390 C.3     1  UNL1        0.0037
     18 C         142.5043  140.0713  168.4793 C.3     1  UNL1        0.0403
     19 C         143.2827  142.2362  166.5604 C.3     1  UNL1        0.1141
     20 C         143.1716  141.8677  166.3961 C.3     1  UNL1        0.1501
     21 O         143.2883  142.2551  166.5688 O.3     1  UNL1       -0.3532
     22 C         143.1716  141.8677  166.3961 C.3     1  UNL1        0.1501
     23 H         143.8070  143.1067  160.9360 H       1  UNL1        0.1466
     24 H         144.2852  144.6646  161.4378 H       1  UNL1        0.1466
     25 C         142.4980  139.0251  160.9192 C.ar    1  UNL1        0.0384
     26 C         141.2588  138.5493  160.2206 C.ar    1  UNL1        0.1022
     27 N         141.2627  138.3594  158.7326 N.ar    1  UNL1       -0.2224
     28 C         142.5058  138.6455  157.9432 C.ar    1  UNL1        0.1989
     29 N         143.7450  139.1214  158.6419 N.ar    1  UNL1       -0.2224
     30 C         143.7410  139.3112  160.1299 C.ar    1  UNL1        0.1022
@<TRIPOS>BOND
     1     1     2    1
     2     2     3    2
     3     3     4    1
     4     4     5    1
     5     5     6    1
     6     4     7    1
     7     7     8   ar
     8     8     9   ar
     9     9    25    1
    10    25    26   ar
    11    26    27   ar
    12    27    28   ar
    13    28    29   ar
    14    29    30   ar
    15     9    10   ar
    16    10    11   ar
    17    11    12   ar
    18    12    13    1
    19    13    14    1
    20    14    15    1
    21    15    16    1
    22    16    17    1
    23    17    18    1
    24    14    19    1
    25    19    20    1
    26    20    21    1
    27    21    22    1
    28     6     2    1
    29    12     7   ar
    30    18    14    1
    31    22    19    1
    32    19     4    1
    33    30    25   ar
    34     1    23    1
    35     1    24    1
@<TRIPOS>MOLECULE
*****
 30 35 0 0 0
SMALL
GASTEIGER

@<TRIPOS>ATOM
      1 N         137.8041  139.9757  162.4120 N.pl3   1  UNL1       -0.3133
      2 C         138.4341  139.9684  163.7733 C.2     1  UNL1        0.2770
      3 N         139.8857  139.7374  164.0717 N.2     1  UNL1       -0.2202
      4 C         140.0719  139.8171  165.5580 C.3     1  UNL1        0.1580
      5 C         138.7351  140.0974  166.1781 C.3     1  UNL1        0.2351
      6 O         137.7229  140.1910  165.0751 O.2     1  UNL1       -0.4478
      7 C         141.3355  139.5390  164.7989 C.ar    1  UNL1        0.0357
      8 C         141.3036  139.4317  163.3031 C.ar    1  UNL1        0.0007
      9 C         142.5671  139.1536  162.5441 C.ar    1  UNL1        0.0029
     10 C         143.8625  138.9830  163.2809 C.ar    1  UNL1        0.0032
     11 C         143.8944  139.0903  164.7767 C.ar    1  UNL1        0.0366
     12 C         142.6309  139.3684  165.5357 C.ar    1  UNL1        0.1360
     13 O         142.6627  139.4757  167.0315 O.3     1  UNL1       -0.4826
     14 C         141.3991  139.7538  167.7906 C.3     1  UNL1        0.1395
     15 C         140.2226  140.0265  168.6802 C.3     1  UNL1        0.0403
     16 C         140.7094  140.0485  170.0988 C.3     1  UNL1        0.0037
     17 C         142.1869  139.7895  170.0859 C.3     1  UNL1        0.0037
     18 C         142.6131  139.6073  168.6594 C.3     1  UNL1        0.0403
     19 C         140.1038  139.9244  167.0538 C.3     1  UNL1        0.1141
     20 C         140.4563  139.8469  166.8420 C.3     1  UNL1        0.1501
     21 O         140.0858  139.9284  167.0646 O.3     1  UNL1       -0.3532
     22 C         140.4563  139.8469  166.8420 C.3     1  UNL1        0.1501
     23 H         138.3571  139.8188  161.6128 H       1  UNL1        0.1466
     24 H         136.8375  140.1375  162.3178 H       1  UNL1        0.1466
     25 C         142.5353  139.0463  161.0482 C.ar    1  UNL1        0.0384
     26 C         141.2634  138.6649  160.3507 C.ar    1  UNL1        0.1022
     27 N         141.2315  138.5575  158.8548 N.ar    1  UNL1       -0.2224
     28 C         142.4716  138.8315  158.0566 C.ar    1  UNL1        0.1989
     29 N         143.7436  139.2129  158.7543 N.ar    1  UNL1       -0.2224
     30 C         143.7754  139.3203  160.2501 C.ar    1  UNL1        0.1022
@<TRIPOS>BOND
     1     1     2    1
     2     2     3    2
     3     3     4    1
     4     4     5    1
     5     5     6    1
     6     4     7    1
     7     7     8   ar
     8     8     9   ar
     9     9    25    1
    10    25    26   ar
    11    26    27   ar
    12    27    28   ar
    13    28    29   ar
    14    29    30   ar
    15     9    10   ar
    16    10    11   ar
    17    11    12   ar
    18    12    13    1
    19    13    14    1
    20    14    15    1
    21    15    16    1
    22    16    17    1
    23    17    18    1
    24    14    19    1
    25    19    20    1
    26    20    21    1
    27    21    22    1
    28     6     2    1
    29    12     7   ar
    30    18    14    1
    31    22    19    1
    32    19     4    1
    33    30    25   ar
    34     1    23    1
    35     1    24    1
@<TRIPOS>MOLECULE
*****
 30 35 0 0 0
SMALL
GASTEIGER

@<TRIPOS>ATOM
      1 N         138.3420  138.3033  162.4335 N.pl3   1  UNL1       -0.3133
      2 C         138.6842  138.8072  163.8043 C.2     1  UNL1        0.2770
      3 N         139.1344  140.1966  164.1459 N.2     1  UNL1       -0.2202
      4 C         139.3646  140.2584  165.6268 C.3     1  UNL1        0.1580
      5 C         139.0567  138.9070  166.2005 C.3     1  UNL1        0.2351
      6 O         138.6362  138.0102  165.0741 O.2     1  UNL1       -0.4478
      7 C         139.6351  141.5497  164.9130 C.ar    1  UNL1        0.0357
      8 C         139.4478  141.6388  163.4274 C.ar    1  UNL1        0.0007
      9 C         139.7182  142.9301  162.7136 C.ar    1  UNL1        0.0029
     10 C         140.1760  144.1321  163.4854 C.ar    1  UNL1        0.0032
     11 C         140.3634  144.0429  164.9710 C.ar    1  UNL1        0.0366
     12 C         140.0929  142.7516  165.6848 C.ar    1  UNL1        0.1360
     13 O         140.2802  142.6624  167.1704 O.3     1  UNL1       -0.4826
     14 C         140.0097  141.3711  167.8842 C.3     1  UNL1        0.1395
     15 C         139.7797  140.1541  168.7303 C.3     1  UNL1        0.0403
     16 C         140.0877  140.5141  170.1535 C.3     1  UNL1        0.0037
     17 C         140.5082  141.9535  170.1870 C.3     1  UNL1        0.0037
     18 C         140.4600  142.4832  168.7844 C.3     1  UNL1        0.0403
     19 C         139.5519  140.1691  167.1124 C.3     1  UNL1        0.1141
     20 C         139.6274  140.5294  166.9132 C.3     1  UNL1        0.1501
     21 O         139.5481  140.1507  167.1226 O.3     1  UNL1       -0.3532
     22 C         139.6274  140.5294  166.9132 C.3     1  UNL1        0.1501
     23 H         138.4048  138.9060  161.6576 H       1  UNL1        0.1466
     24 H         138.0547  137.3698  162.3098 H       1  UNL1        0.1466
     25 C         139.5309  143.0194  161.2280 C.ar    1  UNL1        0.0384
     26 C         138.5087  142.1577  160.5479 C.ar    1  UNL1        0.1022
     27 N         138.3213  142.2469  159.0623 N.ar    1  UNL1       -0.2224
     28 C         139.1562  143.1979  158.2568 C.ar    1  UNL1        0.1989
     29 N         140.1785  144.0595  158.9370 N.ar    1  UNL1       -0.2224
     30 C         140.3658  143.9703  160.4226 C.ar    1  UNL1        0.1022
@<TRIPOS>BOND
     1     1     2    1
     2     2     3    2
     3     3     4    1
     4     4     5    1
     5     5     6    1
     6     4     7    1
     7     7     8   ar
     8     8     9   ar
     9     9    25    1
    10    25    26   ar
    11    26    27   ar
    12    27    28   ar
    13    28    29   ar
    14    29    30   ar
    15     9    10   ar
    16    10    11   ar
    17    11    12   ar
    18    12    13    1
    19    13    14    1
    20    14    15    1
    21    15    16    1
    22    16    17    1
    23    17    18    1
    24    14    19    1
    25    19    20    1
    26    20    21    1
    27    21    22    1
    28     6     2    1
    29    12     7   ar
    30    18    14    1
    31    22    19    1
    32    19     4    1
    33    30    25   ar
    34     1    23    1
    35     1    24    1
@<TRIPOS>MOLECULE
*****
 30 35 0 0 0
SMALL
GASTEIGER

@<TRIPOS>ATOM
      1 N         144.9777  142.8963  161.3143 N.pl3   1  UNL1       -0.3133
      2 C         144.4525  142.7449  162.7112 C.2     1  UNL1        0.2770
      3 N         143.0356  142.9687  163.1494 N.2     1  UNL1       -0.2202
      4 C         142.9593  142.7052  164.6241 C.3     1  UNL1        0.1580
      5 C         144.3292  142.3184  165.0972 C.3     1  UNL1        0.2351
      6 O         145.2520  142.3429  163.9150 O.2     1  UNL1       -0.4478
      7 C         141.6518  143.1057  164.0075 C.ar    1  UNL1        0.0357
      8 C         141.5745  143.4013  162.5390 C.ar    1  UNL1        0.0007
      9 C         140.2671  143.8018  161.9224 C.ar    1  UNL1        0.0029
     10 C         139.0370  143.9066  162.7744 C.ar    1  UNL1        0.0032
     11 C         139.1143  143.6110  164.2430 C.ar    1  UNL1        0.0366
     12 C         140.4217  143.2105  164.8595 C.ar    1  UNL1        0.1360
     13 O         140.4991  142.9149  166.3281 O.3     1  UNL1       -0.4826
     14 C         141.8066  142.5144  166.9446 C.3     1  UNL1        0.1395
     15 C         143.0373  142.1046  167.6978 C.3     1  UNL1        0.0403
     16 C         142.6581  141.9136  169.1365 C.3     1  UNL1        0.0037
     17 C         141.1930  142.2053  169.2724 C.3     1  UNL1        0.0037
     18 C         140.6668  142.5767  167.9177 C.3     1  UNL1        0.0403
     19 C         143.0367  142.4096  166.0926 C.3     1  UNL1        0.1141
     20 C         142.6719  142.5213  165.9206 C.3     1  UNL1        0.1501
     21 O         143.0553  142.4039  166.1014 O.3     1  UNL1       -0.3532
     22 C         142.6719  142.5213  165.9206 C.3     1  UNL1        0.1501
     23 H         144.3715  143.1658  160.5870 H       1  UNL1        0.1466
     24 H         145.9287  142.7261  161.1249 H       1  UNL1        0.1466
     25 C         140.1897  144.0975  160.4539 C.ar    1  UNL1        0.0384
     26 C         139.4449  143.1697  159.5404 C.ar    1  UNL1        0.1022
     27 N         139.3675  143.4653  158.0718 N.ar    1  UNL1       -0.2224
     28 C         140.0349  144.6887  157.5167 C.ar    1  UNL1        0.1989
     29 N         140.7797  145.6165  158.4304 N.ar    1  UNL1       -0.2224
     30 C         140.8571  145.3208  159.8989 C.ar    1  UNL1        0.1022
@<TRIPOS>BOND
     1     1     2    1
     2     2     3    2
     3     3     4    1
     4     4     5    1
     5     5     6    1
     6     4     7    1
     7     7     8   ar
     8     8     9   ar
     9     9    25    1
    10    25    26   ar
    11    26    27   ar
    12    27    28   ar
    13    28    29   ar
    14    29    30   ar
    15     9    10   ar
    16    10    11   ar
    17    11    12   ar
    18    12    13    1
    19    13    14    1
    20    14    15    1
    21    15    16    1
    22    16    17    1
    23    17    18    1
    24    14    19    1
    25    19    20    1
    26    20    21    1
    27    21    22    1
    28     6     2    1
    29    12     7   ar
    30    18    14    1
    31    22    19    1
    32    19     4    1
    33    30    25   ar
    34     1    23    1
    35     1    24    1
@<TRIPOS>MOLECULE
*****
 30 35 0 0 0
SMALL
GASTEIGER

@<TRIPOS>ATOM
      1 N         138.1574  145.1688  165.8606 N.pl3   1  UNL1       -0.3133
      2 C         138.2471  144.2440  164.6830 C.2     1  UNL1        0.2770
      3 N         138.8073  142.8527  164.6953 N.2     1  UNL1       -0.2202
      4 C         138.6988  142.2969  163.3062 C.3     1  UNL1        0.1580
      5 C         138.0713  143.3450  162.4355 C.3     1  UNL1        0.2351
      6 O         137.7922  144.5483  163.2864 O.2     1  UNL1       -0.4478
      7 C         139.3134  141.3514  164.2953 C.ar    1  UNL1        0.0357
      8 C         139.4866  141.7700  165.7252 C.ar    1  UNL1        0.0007
      9 C         140.1013  140.8245  166.7142 C.ar    1  UNL1        0.0029
     10 C         140.5426  139.4604  166.2733 C.ar    1  UNL1        0.0032
     11 C         140.3693  139.0418  164.8433 C.ar    1  UNL1        0.0366
     12 C         139.7547  139.9873  163.8543 C.ar    1  UNL1        0.1360
     13 O         139.5814  139.5688  162.4243 O.3     1  UNL1       -0.4826
     14 C         138.9668  140.5143  161.4353 C.3     1  UNL1        0.1395
     15 C         138.3717  141.3471  160.3388 C.3     1  UNL1        0.0403
     16 C         138.3953  140.5369  159.0767 C.3     1  UNL1        0.0037
     17 C         139.0050  139.2034  159.3931 C.3     1  UNL1        0.0037
     18 C         139.3582  139.1894  160.8509 C.3     1  UNL1        0.0403
     19 C         138.5255  141.8784  161.8763 C.3     1  UNL1        0.1141
     20 C         138.6969  141.6146  162.1522 C.3     1  UNL1        0.1501
     21 O         138.5167  141.8919  161.8622 O.3     1  UNL1       -0.3532
     22 C         138.6969  141.6146  162.1522 C.3     1  UNL1        0.1501
     23 H         138.4846  144.8766  166.7420 H       1  UNL1        0.1466
     24 H         137.7713  146.0679  165.7521 H       1  UNL1        0.1466
     25 C         140.2746  141.2431  168.1442 C.ar    1  UNL1        0.0384
     26 C         141.1404  142.4206  168.4812 C.ar    1  UNL1        0.1022
     27 N         141.3137  142.8393  169.9112 N.ar    1  UNL1       -0.2224
     28 C         140.6212  142.0802  171.0041 C.ar    1  UNL1        0.1989
     29 N         139.7553  140.9026  170.6670 N.ar    1  UNL1       -0.2224
     30 C         139.5820  140.4840  169.2370 C.ar    1  UNL1        0.1022
@<TRIPOS>BOND
     1     1     2    1
     2     2     3    2
     3     3     4    1
     4     4     5    1
     5     5     6    1
     6     4     7    1
     7     7     8   ar
     8     8     9   ar
     9     9    25    1
    10    25    26   ar
    11    26    27   ar
    12    27    28   ar
    13    28    29   ar
    14    29    30   ar
    15     9    10   ar
    16    10    11   ar
    17    11    12   ar
    18    12    13    1
    19    13    14    1
    20    14    15    1
    21    15    16    1
    22    16    17    1
    23    17    18    1
    24    14    19    1
    25    19    20    1
    26    20    21    1
    27    21    22    1
    28     6     2    1
    29    12     7   ar
    30    18    14    1
    31    22    19    1
    32    19     4    1
    33    30    25   ar
    34     1    23    1
    35     1    24    1
