@<TRIPOS>MOLECULE
*****
 29 32 0 0 0
SMALL
GASTEIGER

@<TRIPOS>ATOM
      1 C         140.8609  145.2804  158.7492 C.ar    1  UNL1        0.1680
      2 N         142.1074  145.0027  159.5360 N.ar    1  UNL1       -0.2213
      3 C         141.6993  144.5536  160.9077 C.ar    1  UNL1        0.0989
      4 C         140.2006  144.5537  160.9688 C.ar    1  UNL1        0.0760
      5 N         139.6824  145.0029  159.6347 N.ar    1  UNL1       -0.3324
      6 H         138.7351  145.0987  159.3843 H       1  UNL1        0.1679
      7 C         142.6271  144.1714  162.0228 C.ar    1  UNL1        0.0193
      8 C         142.8651  145.1210  163.1592 C.ar    1  UNL1        0.0038
      9 C         143.7929  144.7388  164.2741 C.ar    1  UNL1        0.0297
     10 C         144.4827  143.4070  164.2526 C.ar    1  UNL1        0.1401
     11 F         145.4105  143.0249  165.3676 F       1  UNL1       -0.2042
     12 C         144.2448  142.4575  163.1161 C.ar    1  UNL1        0.0297
     13 C         143.3170  142.8396  162.0012 C.ar    1  UNL1        0.0038
     14 C         139.3664  144.1716  162.1554 C.ar    1  UNL1        0.0214
     15 C         139.2370  145.1136  163.3156 C.ar    1  UNL1        0.0222
     16 C         138.4028  144.7316  164.5023 C.ar    1  UNL1        0.1004
     17 N         137.6981  143.4077  164.5289 N.ar    1  UNL1       -0.2291
     18 C         137.8276  142.4658  163.3687 C.ar    1  UNL1        0.1322
     19 C         138.6618  142.8478  162.1821 C.ar    1  UNL1        0.0359
     20 N         137.1230  141.1419  163.3952 N.pl3   1  UNL1       -0.2979
     21 H         136.1752  141.0834  163.1353 H       1  UNL1        0.1536
     22 C         137.8623  139.9070  163.8178 C.ar    1  UNL1        0.0494
     23 C         138.3443  138.9313  162.7854 C.ar    1  UNL1        0.0146
     24 C         139.0837  137.6965  163.2080 C.ar    1  UNL1        0.0013
     25 C         139.3410  137.4373  164.6629 C.ar    1  UNL1        0.0001
     26 C         138.8590  138.4130  165.6952 C.ar    1  UNL1        0.0013
     27 C         138.1196  139.6479  165.2727 C.ar    1  UNL1        0.0146
     28 C         139.7450  146.7278  156.9026 C.3     1  UNL1        0.0772
     29 S         140.8030  145.7527  157.3266 S.3     1  UNL1       -0.0766
@<TRIPOS>BOND
     1    28    29    1
     2    29     1    1
     3     1     2   ar
     4     2     3   ar
     5     3     7    1
     6     7     8   ar
     7     8     9   ar
     8     9    10   ar
     9    10    11    1
    10    10    12   ar
    11    12    13   ar
    12     3     4   ar
    13     4    14    1
    14    14    15   ar
    15    15    16   ar
    16    16    17   ar
    17    17    18   ar
    18    18    20    1
    19    20    22    1
    20    22    23   ar
    21    23    24   ar
    22    24    25   ar
    23    25    26   ar
    24    26    27   ar
    25    18    19   ar
    26     4     5   ar
    27     5     1   ar
    28    13     7   ar
    29    19    14   ar
    30    27    22   ar
    31    20    21    1
    32     5     6    1
@<TRIPOS>MOLECULE
*****
 29 32 0 0 0
SMALL
GASTEIGER

@<TRIPOS>ATOM
      1 C         140.4292  140.0770  169.1763 C.ar    1  UNL1        0.1680
      2 N         141.7185  140.4084  168.4851 N.ar    1  UNL1       -0.2213
      3 C         141.5197  140.2072  167.0120 C.ar    1  UNL1        0.0989
      4 C         140.1076  139.7514  166.7927 C.ar    1  UNL1        0.0760
      5 N         139.4335  139.6710  168.1304 N.ar    1  UNL1       -0.3324
      6 H         138.5014  139.3994  168.2932 H       1  UNL1        0.1679
      7 C         142.5520  140.4237  165.9453 C.ar    1  UNL1        0.0193
      8 C         142.8671  141.8136  165.4776 C.ar    1  UNL1        0.0038
      9 C         143.8993  142.0300  164.4111 C.ar    1  UNL1        0.0297
     10 C         144.6164  140.8566  163.8122 C.ar    1  UNL1        0.1401
     11 F         145.6487  141.0731  162.7455 F       1  UNL1       -0.2042
     12 C         144.3013  139.4666  164.2798 C.ar    1  UNL1        0.0297
     13 C         143.2691  139.2502  165.3464 C.ar    1  UNL1        0.0038
     14 C         139.4796  139.4322  165.4685 C.ar    1  UNL1        0.0214
     15 C         139.5358  138.0334  164.9296 C.ar    1  UNL1        0.0222
     16 C         138.9078  137.7141  163.6053 C.ar    1  UNL1        0.1004
     17 N         138.2238  138.7936  162.8198 N.ar    1  UNL1       -0.2291
     18 C         138.1677  140.1923  163.3587 C.ar    1  UNL1        0.1322
     19 C         138.7956  140.5115  164.6830 C.ar    1  UNL1        0.0359
     20 N         137.4836  141.2718  162.5733 N.pl3   1  UNL1       -0.2979
     21 H         136.5630  141.1380  162.2511 H       1  UNL1        0.1536
     22 C         138.2022  142.5551  162.2789 C.ar    1  UNL1        0.0494
     23 C         139.1466  142.6361  161.1162 C.ar    1  UNL1        0.0146
     24 C         139.8652  143.9194  160.8218 C.ar    1  UNL1        0.0013
     25 C         139.6395  145.1217  161.6899 C.ar    1  UNL1        0.0001
     26 C         138.6952  145.0406  162.8525 C.ar    1  UNL1        0.0013
     27 C         137.9765  143.7573  163.1471 C.ar    1  UNL1        0.0146
     28 C         140.9572  141.0994  171.5057 C.3     1  UNL1        0.0772
     29 S         140.1793  140.1405  170.6540 S.3     1  UNL1       -0.0766
@<TRIPOS>BOND
     1    28    29    1
     2    29     1    1
     3     1     2   ar
     4     2     3   ar
     5     3     7    1
     6     7     8   ar
     7     8     9   ar
     8     9    10   ar
     9    10    11    1
    10    10    12   ar
    11    12    13   ar
    12     3     4   ar
    13     4    14    1
    14    14    15   ar
    15    15    16   ar
    16    16    17   ar
    17    17    18   ar
    18    18    20    1
    19    20    22    1
    20    22    23   ar
    21    23    24   ar
    22    24    25   ar
    23    25    26   ar
    24    26    27   ar
    25    18    19   ar
    26     4     5   ar
    27     5     1   ar
    28    13     7   ar
    29    19    14   ar
    30    27    22   ar
    31    20    21    1
    32     5     6    1
@<TRIPOS>MOLECULE
*****
 29 32 0 0 0
SMALL
GASTEIGER

@<TRIPOS>ATOM
      1 C         141.9704  142.2792  168.8294 C.ar    1  UNL1        0.1680
      2 N         143.0189  142.2276  167.7579 N.ar    1  UNL1       -0.2213
      3 C         142.3512  142.4994  166.4425 C.ar    1  UNL1        0.0989
      4 C         140.8901  142.7189  166.7009 C.ar    1  UNL1        0.0760
      5 N         140.6547  142.5828  168.1761 N.ar    1  UNL1       -0.3324
      6 H         139.7887  142.6764  168.6349 H       1  UNL1        0.1679
      7 C         143.0262  142.5438  165.1036 C.ar    1  UNL1        0.0193
      8 C         143.3828  141.2676  164.4008 C.ar    1  UNL1        0.0038
      9 C         144.0578  141.3121  163.0620 C.ar    1  UNL1        0.0297
     10 C         144.3762  142.6328  162.4261 C.ar    1  UNL1        0.1401
     11 F         145.0513  142.6773  161.0872 F       1  UNL1       -0.2042
     12 C         144.0196  143.9090  163.1290 C.ar    1  UNL1        0.0297
     13 C         143.3446  143.8645  164.4677 C.ar    1  UNL1        0.0038
     14 C         139.8473  143.0214  165.6660 C.ar    1  UNL1        0.0214
     15 C         139.6092  144.4377  165.2330 C.ar    1  UNL1        0.0222
     16 C         138.5664  144.7402  164.1980 C.ar    1  UNL1        0.1004
     17 N         137.7618  143.6265  163.5960 N.ar    1  UNL1       -0.2291
     18 C         138.0000  142.2103  164.0290 C.ar    1  UNL1        0.1322
     19 C         139.0427  141.9078  165.0640 C.ar    1  UNL1        0.0359
     20 N         137.1954  141.0966  163.4271 N.pl3   1  UNL1       -0.2979
     21 H         136.2363  141.0148  163.6337 H       1  UNL1        0.1536
     22 C         137.8522  140.1075  162.5104 C.ar    1  UNL1        0.0494
     23 C         137.8965  140.3680  161.0338 C.ar    1  UNL1        0.0146
     24 C         138.5532  139.3789  160.1172 C.ar    1  UNL1        0.0013
     25 C         139.1657  138.1292  160.6769 C.ar    1  UNL1        0.0001
     26 C         139.1214  137.8688  162.1535 C.ar    1  UNL1        0.0013
     27 C         138.4646  138.8579  163.0703 C.ar    1  UNL1        0.0146
     28 C         141.8558  140.7457  170.9235 C.3     1  UNL1        0.0772
     29 S         142.1977  142.0648  170.2964 S.3     1  UNL1       -0.0766
@<TRIPOS>BOND
     1    28    29    1
     2    29     1    1
     3     1     2   ar
     4     2     3   ar
     5     3     7    1
     6     7     8   ar
     7     8     9   ar
     8     9    10   ar
     9    10    11    1
    10    10    12   ar
    11    12    13   ar
    12     3     4   ar
    13     4    14    1
    14    14    15   ar
    15    15    16   ar
    16    16    17   ar
    17    17    18   ar
    18    18    20    1
    19    20    22    1
    20    22    23   ar
    21    23    24   ar
    22    24    25   ar
    23    25    26   ar
    24    26    27   ar
    25    18    19   ar
    26     4     5   ar
    27     5     1   ar
    28    13     7   ar
    29    19    14   ar
    30    27    22   ar
    31    20    21    1
    32     5     6    1
@<TRIPOS>MOLECULE
*****
 29 32 0 0 0
SMALL
GASTEIGER

@<TRIPOS>ATOM
      1 C         140.6431  140.1086  169.1500 C.ar    1  UNL1        0.1680
      2 N         139.6459  139.6719  168.1181 N.ar    1  UNL1       -0.2213
      3 C         140.3262  139.6850  166.7812 C.ar    1  UNL1        0.0989
      4 C         141.7438  140.1299  166.9869 C.ar    1  UNL1        0.0760
      5 N         141.9397  140.3916  168.4508 N.ar    1  UNL1       -0.3324
      6 H         142.7730  140.6958  168.8778 H       1  UNL1        0.1679
      7 C         139.6988  139.3178  165.4691 C.ar    1  UNL1        0.0193
      8 C         138.7887  140.2875  164.7754 C.ar    1  UNL1        0.0038
      9 C         138.1614  139.9202  163.4633 C.ar    1  UNL1        0.0297
     10 C         138.4443  138.5833  162.8449 C.ar    1  UNL1        0.1401
     11 F         137.8169  138.2160  161.5328 F       1  UNL1       -0.2042
     12 C         139.3544  137.6135  163.5386 C.ar    1  UNL1        0.0297
     13 C         139.9817  137.9808  164.8507 C.ar    1  UNL1        0.0038
     14 C         142.7831  140.2856  165.9166 C.ar    1  UNL1        0.0214
     15 C         143.6003  139.1032  165.4871 C.ar    1  UNL1        0.0222
     16 C         144.6396  139.2589  164.4168 C.ar    1  UNL1        0.1004
     17 N         144.8618  140.5969  163.7760 N.ar    1  UNL1       -0.2291
     18 C         144.0447  141.7791  164.2055 C.ar    1  UNL1        0.1322
     19 C         143.0054  141.6234  165.2758 C.ar    1  UNL1        0.0359
     20 N         144.2669  143.1171  163.5648 N.pl3   1  UNL1       -0.2979
     21 H         145.1610  143.5287  163.5820 H       1  UNL1        0.1536
     22 C         143.1267  143.8278  162.8979 C.ar    1  UNL1        0.0494
     23 C         142.2709  144.7760  163.6845 C.ar    1  UNL1        0.0146
     24 C         141.1308  145.4867  163.0176 C.ar    1  UNL1        0.0013
     25 C         140.8463  145.2495  161.5640 C.ar    1  UNL1        0.0001
     26 C         141.7021  144.3013  160.7774 C.ar    1  UNL1        0.0013
     27 C         142.8423  143.5905  161.4443 C.ar    1  UNL1        0.0146
     28 C         140.9964  141.3752  171.3907 C.3     1  UNL1        0.0772
     29 S         140.3885  140.2393  170.6224 S.3     1  UNL1       -0.0766
@<TRIPOS>BOND
     1    28    29    1
     2    29     1    1
     3     1     2   ar
     4     2     3   ar
     5     3     7    1
     6     7     8   ar
     7     8     9   ar
     8     9    10   ar
     9    10    11    1
    10    10    12   ar
    11    12    13   ar
    12     3     4   ar
    13     4    14    1
    14    14    15   ar
    15    15    16   ar
    16    16    17   ar
    17    17    18   ar
    18    18    20    1
    19    20    22    1
    20    22    23   ar
    21    23    24   ar
    22    24    25   ar
    23    25    26   ar
    24    26    27   ar
    25    18    19   ar
    26     4     5   ar
    27     5     1   ar
    28    13     7   ar
    29    19    14   ar
    30    27    22   ar
    31    20    21    1
    32     5     6    1
@<TRIPOS>MOLECULE
*****
 29 32 0 0 0
SMALL
GASTEIGER

@<TRIPOS>ATOM
      1 C         138.6073  141.7689  158.7589 C.ar    1  UNL1        0.1680
      2 N         138.4358  142.8777  159.7544 N.ar    1  UNL1       -0.2213
      3 C         138.7560  142.3330  161.1148 C.ar    1  UNL1        0.0989
      4 C         139.1254  140.8874  160.9601 C.ar    1  UNL1        0.0760
      5 N         139.0335  140.5388  159.5041 N.ar    1  UNL1       -0.3324
      6 H         139.2201  139.6574  159.1072 H       1  UNL1        0.1679
      7 C         138.7141  143.0993  162.4037 C.ar    1  UNL1        0.0193
      8 C         139.8232  144.0487  162.7481 C.ar    1  UNL1        0.0038
      9 C         139.7813  144.8149  164.0369 C.ar    1  UNL1        0.0297
     10 C         138.6304  144.6318  164.9813 C.ar    1  UNL1        0.1401
     11 F         138.5885  145.3981  166.2701 F       1  UNL1       -0.2042
     12 C         137.5213  143.6824  164.6369 C.ar    1  UNL1        0.0297
     13 C         137.5632  142.9162  163.3481 C.ar    1  UNL1        0.0038
     14 C         139.5178  139.9543  162.0670 C.ar    1  UNL1        0.0214
     15 C         138.5097  139.0009  162.6370 C.ar    1  UNL1        0.0222
     16 C         138.9021  138.0678  163.7439 C.ar    1  UNL1        0.1004
     17 N         140.3025  138.0881  164.2810 N.ar    1  UNL1       -0.2291
     18 C         141.3106  139.0415  163.7110 C.ar    1  UNL1        0.1322
     19 C         140.9182  139.9746  162.6041 C.ar    1  UNL1        0.0359
     20 N         142.7110  139.0618  164.2480 N.pl3   1  UNL1       -0.2979
     21 H         143.1686  138.2167  164.4618 H       1  UNL1        0.1536
     22 C         143.4144  140.3697  164.4593 C.ar    1  UNL1        0.0494
     23 C         144.7118  140.6453  163.7586 C.ar    1  UNL1        0.0146
     24 C         145.4151  141.9532  163.9698 C.ar    1  UNL1        0.0013
     25 C         144.8212  142.9856  164.8817 C.ar    1  UNL1        0.0001
     26 C         143.5238  142.7099  165.5824 C.ar    1  UNL1        0.0013
     27 C         142.8204  141.4020  165.3712 C.ar    1  UNL1        0.0146
     28 C         137.0034  141.7800  156.7150 C.3     1  UNL1        0.0772
     29 S         138.3906  141.8720  157.2782 S.3     1  UNL1       -0.0766
@<TRIPOS>BOND
     1    28    29    1
     2    29     1    1
     3     1     2   ar
     4     2     3   ar
     5     3     7    1
     6     7     8   ar
     7     8     9   ar
     8     9    10   ar
     9    10    11    1
    10    10    12   ar
    11    12    13   ar
    12     3     4   ar
    13     4    14    1
    14    14    15   ar
    15    15    16   ar
    16    16    17   ar
    17    17    18   ar
    18    18    20    1
    19    20    22    1
    20    22    23   ar
    21    23    24   ar
    22    24    25   ar
    23    25    26   ar
    24    26    27   ar
    25    18    19   ar
    26     4     5   ar
    27     5     1   ar
    28    13     7   ar
    29    19    14   ar
    30    27    22   ar
    31    20    21    1
    32     5     6    1
@<TRIPOS>MOLECULE
*****
 29 32 0 0 0
SMALL
GASTEIGER

@<TRIPOS>ATOM
      1 C         140.2511  138.5071  159.4301 C.ar    1  UNL1        0.1680
      2 N         139.2753  138.3600  160.5598 N.ar    1  UNL1       -0.2213
      3 C         139.9634  138.7807  161.8245 C.ar    1  UNL1        0.0989
      4 C         141.3645  139.1878  161.4765 C.ar    1  UNL1        0.0760
      5 N         141.5423  139.0187  159.9967 N.ar    1  UNL1       -0.3324
      6 H         142.3625  139.2100  159.4869 H       1  UNL1        0.1679
      7 C         139.3568  138.7922  163.1964 C.ar    1  UNL1        0.0193
      8 C         138.7757  140.0599  163.7488 C.ar    1  UNL1        0.0038
      9 C         138.1691  140.0714  165.1207 C.ar    1  UNL1        0.0297
     10 C         138.1437  138.8152  165.9400 C.ar    1  UNL1        0.1401
     11 F         137.5372  138.8267  167.3119 F       1  UNL1       -0.2042
     12 C         138.7249  137.5475  165.3876 C.ar    1  UNL1        0.0297
     13 C         139.3314  137.5360  164.0158 C.ar    1  UNL1        0.0038
     14 C         142.4051  139.6780  162.4392 C.ar    1  UNL1        0.0214
     15 C         143.6366  138.8600  162.6930 C.ar    1  UNL1        0.0222
     16 C         144.6772  139.3501  163.6557 C.ar    1  UNL1        0.1004
     17 N         144.4864  140.6582  164.3647 N.ar    1  UNL1       -0.2291
     18 C         143.2549  141.4761  164.1109 C.ar    1  UNL1        0.1322
     19 C         142.2143  140.9859  163.1482 C.ar    1  UNL1        0.0359
     20 N         143.0640  142.7842  164.8198 N.pl3   1  UNL1       -0.2979
     21 H         143.8205  143.2049  165.2888 H       1  UNL1        0.1536
     22 C         141.7206  143.4513  164.8141 C.ar    1  UNL1        0.0494
     23 C         140.6815  143.0536  165.8202 C.ar    1  UNL1        0.0146
     24 C         139.3380  143.7207  165.8145 C.ar    1  UNL1        0.0013
     25 C         139.0335  144.7854  164.8027 C.ar    1  UNL1        0.0001
     26 C         140.0726  145.1831  163.7966 C.ar    1  UNL1        0.0013
     27 C         141.4162  144.5160  163.8023 C.ar    1  UNL1        0.0146
     28 C         141.0801  138.3350  156.9739 C.3     1  UNL1        0.0772
     29 S         139.9828  138.1970  157.9873 S.3     1  UNL1       -0.0766
@<TRIPOS>BOND
     1    28    29    1
     2    29     1    1
     3     1     2   ar
     4     2     3   ar
     5     3     7    1
     6     7     8   ar
     7     8     9   ar
     8     9    10   ar
     9    10    11    1
    10    10    12   ar
    11    12    13   ar
    12     3     4   ar
    13     4    14    1
    14    14    15   ar
    15    15    16   ar
    16    16    17   ar
    17    17    18   ar
    18    18    20    1
    19    20    22    1
    20    22    23   ar
    21    23    24   ar
    22    24    25   ar
    23    25    26   ar
    24    26    27   ar
    25    18    19   ar
    26     4     5   ar
    27     5     1   ar
    28    13     7   ar
    29    19    14   ar
    30    27    22   ar
    31    20    21    1
    32     5     6    1
@<TRIPOS>MOLECULE
*****
 29 32 0 0 0
SMALL
GASTEIGER

@<TRIPOS>ATOM
      1 C         142.0176  142.4111  168.8683 C.ar    1  UNL1        0.1680
      2 N         140.8365  142.8008  168.0298 N.ar    1  UNL1       -0.2213
      3 C         141.1118  142.3795  166.6168 C.ar    1  UNL1        0.0989
      4 C         142.4632  141.7295  166.5818 C.ar    1  UNL1        0.0760
      5 N         143.0230  141.7489  167.9733 N.ar    1  UNL1       -0.3324
      6 H         143.8969  141.3901  168.2505 H       1  UNL1        0.1679
      7 C         140.1964  142.5742  165.4444 C.ar    1  UNL1        0.0193
      8 C         140.2148  143.8677  164.6852 C.ar    1  UNL1        0.0038
      9 C         139.2995  144.0623  163.5130 C.ar    1  UNL1        0.0297
     10 C         138.3658  142.9634  163.0999 C.ar    1  UNL1        0.1401
     11 F         137.4504  143.1581  161.9275 F       1  UNL1       -0.2042
     12 C         138.3474  141.6699  163.8591 C.ar    1  UNL1        0.0297
     13 C         139.2628  141.4753  165.0313 C.ar    1  UNL1        0.0038
     14 C         143.1365  141.1599  165.3685 C.ar    1  UNL1        0.0214
     15 C         144.3719  141.8113  164.8212 C.ar    1  UNL1        0.0222
     16 C         145.0452  141.2418  163.6078 C.ar    1  UNL1        0.1004
     17 N         144.4833  140.0208  162.9418 N.ar    1  UNL1       -0.2291
     18 C         143.2479  139.3695  163.4892 C.ar    1  UNL1        0.1322
     19 C         142.5746  139.9390  164.7025 C.ar    1  UNL1        0.0359
     20 N         142.6859  138.1485  162.8232 N.pl3   1  UNL1       -0.2979
     21 H         143.2733  137.3859  162.6168 H       1  UNL1        0.1536
     22 C         141.2289  138.0896  162.4717 C.ar    1  UNL1        0.0494
     23 C         140.7842  138.3728  161.0673 C.ar    1  UNL1        0.0146
     24 C         139.3271  138.3138  160.7158 C.ar    1  UNL1        0.0013
     25 C         138.3148  137.9716  161.7685 C.ar    1  UNL1        0.0001
     26 C         138.7596  137.6884  163.1727 C.ar    1  UNL1        0.0013
     27 C         140.2166  137.7473  163.5244 C.ar    1  UNL1        0.0146
     28 C         141.3532  141.8407  171.3143 C.3     1  UNL1        0.0772
     29 S         142.1672  142.6428  170.3427 S.3     1  UNL1       -0.0766
@<TRIPOS>BOND
     1    28    29    1
     2    29     1    1
     3     1     2   ar
     4     2     3   ar
     5     3     7    1
     6     7     8   ar
     7     8     9   ar
     8     9    10   ar
     9    10    11    1
    10    10    12   ar
    11    12    13   ar
    12     3     4   ar
    13     4    14    1
    14    14    15   ar
    15    15    16   ar
    16    16    17   ar
    17    17    18   ar
    18    18    20    1
    19    20    22    1
    20    22    23   ar
    21    23    24   ar
    22    24    25   ar
    23    25    26   ar
    24    26    27   ar
    25    18    19   ar
    26     4     5   ar
    27     5     1   ar
    28    13     7   ar
    29    19    14   ar
    30    27    22   ar
    31    20    21    1
    32     5     6    1
@<TRIPOS>MOLECULE
*****
 29 32 0 0 0
SMALL
GASTEIGER

@<TRIPOS>ATOM
      1 C         138.5417  141.7734  158.7480 C.ar    1  UNL1        0.1680
      2 N         138.3945  142.8933  159.7350 N.ar    1  UNL1       -0.2213
      3 C         138.6654  142.3433  161.1040 C.ar    1  UNL1        0.0989
      4 C         138.9800  140.8834  160.9631 C.ar    1  UNL1        0.0760
      5 N         138.9036  140.5312  159.5071 N.ar    1  UNL1       -0.3324
      6 H         139.0630  139.6410  159.1179 H       1  UNL1        0.1679
      7 C         138.6281  143.1172  162.3884 C.ar    1  UNL1        0.0193
      8 C         137.6086  142.7825  163.4364 C.ar    1  UNL1        0.0038
      9 C         137.5714  143.5565  164.7208 C.ar    1  UNL1        0.0297
     10 C         138.5537  144.6652  164.9570 C.ar    1  UNL1        0.1401
     11 F         138.5165  145.4392  166.2414 F       1  UNL1       -0.2042
     12 C         139.5733  144.9999  163.9090 C.ar    1  UNL1        0.0297
     13 C         139.6105  144.2259  162.6247 C.ar    1  UNL1        0.0038
     14 C         139.3127  139.9412  162.0818 C.ar    1  UNL1        0.0214
     15 C         138.5463  138.6610  162.2370 C.ar    1  UNL1        0.0222
     16 C         138.8790  137.7188  163.3557 C.ar    1  UNL1        0.1004
     17 N         139.9779  138.0566  164.3192 N.ar    1  UNL1       -0.2291
     18 C         140.7442  139.3367  164.1640 C.ar    1  UNL1        0.1322
     19 C         140.4115  140.2790  163.0453 C.ar    1  UNL1        0.0359
     20 N         141.8431  139.6746  165.1274 N.pl3   1  UNL1       -0.2979
     21 H         142.7509  139.8585  164.7938 H       1  UNL1        0.1536
     22 C         141.5588  139.7323  166.5991 C.ar    1  UNL1        0.0494
     23 C         140.1932  140.1190  167.0846 C.ar    1  UNL1        0.0146
     24 C         139.9089  140.1766  168.5563 C.ar    1  UNL1        0.0013
     25 C         140.9902  139.8476  169.5425 C.ar    1  UNL1        0.0001
     26 C         142.3558  139.4610  169.0570 C.ar    1  UNL1        0.0013
     27 C         142.6402  139.4033  167.5853 C.ar    1  UNL1        0.0146
     28 C         137.5814  140.8266  156.5274 C.3     1  UNL1        0.0772
     29 S         138.3591  141.8774  157.2628 S.3     1  UNL1       -0.0766
@<TRIPOS>BOND
     1    28    29    1
     2    29     1    1
     3     1     2   ar
     4     2     3   ar
     5     3     7    1
     6     7     8   ar
     7     8     9   ar
     8     9    10   ar
     9    10    11    1
    10    10    12   ar
    11    12    13   ar
    12     3     4   ar
    13     4    14    1
    14    14    15   ar
    15    15    16   ar
    16    16    17   ar
    17    17    18   ar
    18    18    20    1
    19    20    22    1
    20    22    23   ar
    21    23    24   ar
    22    24    25   ar
    23    25    26   ar
    24    26    27   ar
    25    18    19   ar
    26     4     5   ar
    27     5     1   ar
    28    13     7   ar
    29    19    14   ar
    30    27    22   ar
    31    20    21    1
    32     5     6    1
@<TRIPOS>MOLECULE
*****
 29 32 0 0 0
SMALL
GASTEIGER

@<TRIPOS>ATOM
      1 C         140.4096  141.6550  169.1249 C.ar    1  UNL1        0.1680
      2 N         140.5525  142.8398  168.2163 N.ar    1  UNL1       -0.2213
      3 C         140.2910  142.3814  166.8122 C.ar    1  UNL1        0.0989
      4 C         139.9865  140.9133  166.8530 C.ar    1  UNL1        0.0760
      5 N         140.0598  140.4642  168.2824 N.ar    1  UNL1       -0.3324
      6 H         139.9054  139.5488  168.6100 H       1  UNL1        0.1679
      7 C         140.3276  143.2405  165.5830 C.ar    1  UNL1        0.0193
      8 C         141.5435  143.2414  164.7046 C.ar    1  UNL1        0.0038
      9 C         141.5801  144.1005  163.4755 C.ar    1  UNL1        0.0297
     10 C         140.4008  144.9585  163.1248 C.ar    1  UNL1        0.1401
     11 F         140.4374  145.8175  161.8956 F       1  UNL1       -0.2042
     12 C         139.1849  144.9575  164.0032 C.ar    1  UNL1        0.0297
     13 C         139.1483  144.0985  165.2323 C.ar    1  UNL1        0.0038
     14 C         139.6651  140.0463  165.6719 C.ar    1  UNL1        0.0214
     15 C         140.3098  138.6989  165.5331 C.ar    1  UNL1        0.0222
     16 C         139.9884  137.8319  164.3520 C.ar    1  UNL1        0.1004
     17 N         139.0224  138.3121  163.3097 N.ar    1  UNL1       -0.2291
     18 C         138.3778  139.6594  163.4486 C.ar    1  UNL1        0.1322
     19 C         138.6992  140.5264  164.6297 C.ar    1  UNL1        0.0359
     20 N         137.4118  140.1397  162.4064 N.pl3   1  UNL1       -0.2979
     21 H         136.4487  139.9631  162.5092 H       1  UNL1        0.1536
     22 C         137.9131  140.8890  161.2076 C.ar    1  UNL1        0.0494
     23 C         137.8724  140.2484  159.8518 C.ar    1  UNL1        0.0146
     24 C         138.3737  140.9978  158.6530 C.ar    1  UNL1        0.0013
     25 C         138.9157  142.3876  158.8099 C.ar    1  UNL1        0.0001
     26 C         138.9564  143.0281  160.1656 C.ar    1  UNL1        0.0013
     27 C         138.4551  142.2788  161.3646 C.ar    1  UNL1        0.0146
     28 C         141.8006  141.0297  171.2283 C.3     1  UNL1        0.0772
     29 S         140.5856  141.6599  170.6146 S.3     1  UNL1       -0.0766
@<TRIPOS>BOND
     1    28    29    1
     2    29     1    1
     3     1     2   ar
     4     2     3   ar
     5     3     7    1
     6     7     8   ar
     7     8     9   ar
     8     9    10   ar
     9    10    11    1
    10    10    12   ar
    11    12    13   ar
    12     3     4   ar
    13     4    14    1
    14    14    15   ar
    15    15    16   ar
    16    16    17   ar
    17    17    18   ar
    18    18    20    1
    19    20    22    1
    20    22    23   ar
    21    23    24   ar
    22    24    25   ar
    23    25    26   ar
    24    26    27   ar
    25    18    19   ar
    26     4     5   ar
    27     5     1   ar
    28    13     7   ar
    29    19    14   ar
    30    27    22   ar
    31    20    21    1
    32     5     6    1
