@<TRIPOS>MOLECULE
*****
 44 48 0 0 0
SMALL
GASTEIGER

@<TRIPOS>ATOM
      1 C         141.2535  142.5580  166.2970 C.3     1  UNL1        0.0544
      2 C         142.2911  142.4536  165.2188 C.3     1  UNL1        0.0162
      3 C         142.0714  143.1305  163.8984 C.3     1  UNL1        0.0104
      4 C         140.8141  143.9118  163.6561 C.3     1  UNL1        0.0768
      5 C         139.7764  144.0163  164.7344 C.3     1  UNL1        0.0095
      6 C         138.5097  144.4023  165.4390 C.3     1  UNL1        0.0005
      7 C         139.1168  144.8272  163.6587 C.3     1  UNL1        0.0005
      8 C         139.9961  143.3393  166.0548 C.3     1  UNL1        0.0162
      9 C         140.5943  144.5887  162.3357 C.2     1  UNL1        0.2251
     10 O         140.8065  146.0681  162.2068 O.2     1  UNL1       -0.2749
     11 N         140.1625  143.7864  161.1443 N.am    1  UNL1       -0.2795
     12 C         139.9503  142.3071  161.2732 C.3     1  UNL1        0.0942
     13 C         139.5184  141.5046  160.0817 C.3     1  UNL1        0.0343
     14 C         139.2987  142.1815  158.7613 C.3     1  UNL1        0.0911
     15 C         139.5108  143.6609  158.6324 C.3     1  UNL1        0.0343
     16 C         139.9427  144.4633  159.8238 C.3     1  UNL1        0.0942
     17 C         138.9707  140.7667  158.3865 C.2     1  UNL1        0.2286
     18 O         137.5398  140.3217  158.3171 O.2     1  UNL1       -0.2746
     19 N         140.0734  139.7968  158.0810 N.am    1  UNL1       -0.2793
     20 C         139.9000  138.3580  157.6940 C.3     1  UNL1        0.0935
     21 C         141.2626  137.7674  157.4827 C.3     1  UNL1        0.0233
     22 C         142.2781  138.8412  157.7392 C.3     1  UNL1        0.0233
     23 C         141.5431  140.0955  158.1090 C.3     1  UNL1        0.0935
     24 C         138.9650  142.3671  157.3107 C.ar    1  UNL1       -0.0145
     25 C         137.5454  142.6121  156.8931 C.ar    1  UNL1       -0.0038
     26 C         137.2117  142.7976  155.4424 C.ar    1  UNL1       -0.0003
     27 C         138.2977  142.7382  154.4095 C.ar    1  UNL1       -0.0000
     28 C         139.7174  142.4932  154.8272 C.ar    1  UNL1       -0.0003
     29 C         140.0511  142.3076  156.2777 C.ar    1  UNL1       -0.0038
     30 N         141.4733  141.8811  167.6174 N.3     1  UNL1       -0.2893
     31 H         142.4552  142.0164  167.8579 H       1  UNL1        0.1237
     32 C         141.1892  140.4157  167.7655 C.3     1  UNL1        0.1731
     33 C         139.2942  138.1377  164.3788 C.ar    1  UNL1        0.1387
     34 C         140.7823  138.1049  164.5648 C.ar    1  UNL1        0.0366
     35 C         141.4139  138.8642  165.6937 C.ar    1  UNL1        0.0004
     36 C         140.5576  139.6564  166.6366 C.ar    1  UNL1        0.0005
     37 C         139.0695  139.6892  166.4505 C.ar    1  UNL1        0.0004
     38 C         138.4379  138.9299  165.3216 C.ar    1  UNL1        0.0366
     39 C         138.1551  138.1118  162.0439 C.3     1  UNL1        0.2525
     40 O         138.6626  137.3784  163.2499 O.3     1  UNL1       -0.4714
     41 C         141.5368  139.7097  169.0424 C.3     1  UNL1        0.4142
     42 F         141.8845  139.0036  170.3194 F       1  UNL1       -0.1682
     43 F         140.1352  139.9130  169.5364 F       1  UNL1       -0.1682
     44 F         142.9385  139.5064  168.5484 F       1  UNL1       -0.1682
@<TRIPOS>BOND
     1    39    40    1
     2    40    33    1
     3    33    34   ar
     4    34    35   ar
     5    35    36   ar
     6    36    32    1
     7    32    30    1
     8     1    30    1
     9     1     2    1
    10     2     3    1
    11     3     4    1
    12     4     9    1
    13     9    10    2
    14     9    11   am
    15    11    12    1
    16    12    13    1
    17    13    14    1
    18    14    17    1
    19    17    18    2
    20    17    19   am
    21    19    20    1
    22    20    21    1
    23    21    22    1
    24    22    23    1
    25    14    24    1
    26    24    25   ar
    27    25    26   ar
    28    26    27   ar
    29    27    28   ar
    30    28    29   ar
    31    14    15    1
    32    15    16    1
    33     4     5    1
    34     5     6    1
    35     5     7    1
    36     5     8    1
    37    32    41    1
    38    41    42    1
    39    41    43    1
    40    41    44    1
    41    36    37   ar
    42    37    38   ar
    43    38    33   ar
    44     8     1    1
    45    16    11    1
    46    23    19    1
    47    29    24   ar
    48    30    31    1
@<TRIPOS>MOLECULE
*****
 44 48 0 0 0
SMALL
GASTEIGER

@<TRIPOS>ATOM
      1 C         142.9513  141.1267  167.0291 C.3     1  UNL1        0.0544
      2 C         143.3326  142.5227  166.6348 C.3     1  UNL1        0.0162
      3 C         143.9596  142.7794  165.2965 C.3     1  UNL1        0.0104
      4 C         144.2053  141.6399  164.3525 C.3     1  UNL1        0.0768
      5 C         143.8240  140.2437  164.7467 C.3     1  UNL1        0.0095
      6 C         143.6380  138.7575  164.6666 C.3     1  UNL1        0.0005
      7 C         144.3863  139.9842  163.3806 C.3     1  UNL1        0.0005
      8 C         143.1970  139.9871  166.0850 C.3     1  UNL1        0.0162
      9 C         144.8322  141.8965  163.0142 C.2     1  UNL1        0.2251
     10 O         146.3158  141.7568  162.8418 O.2     1  UNL1       -0.2749
     11 N         143.9758  142.2928  161.8483 N.am    1  UNL1       -0.2795
     12 C         142.4923  142.4326  162.0207 C.3     1  UNL1        0.0942
     13 C         141.6357  142.8289  160.8548 C.3     1  UNL1        0.0343
     14 C         142.2627  143.0855  159.5165 C.3     1  UNL1        0.0911
     15 C         143.7463  142.9458  159.3441 C.3     1  UNL1        0.0343
     16 C         144.6027  142.5495  160.5100 C.3     1  UNL1        0.0942
     17 C         140.8234  143.3458  159.1840 C.2     1  UNL1        0.2286
     18 O         140.2843  144.7449  159.2293 O.2     1  UNL1       -0.2746
     19 N         139.9231  142.2070  158.8063 N.am    1  UNL1       -0.2793
     20 C         138.4699  142.3127  158.4502 C.3     1  UNL1        0.0935
     21 C         137.9666  140.9336  158.1421 C.3     1  UNL1        0.0233
     22 C         139.1089  139.9756  158.3080 C.3     1  UNL1        0.0233
     23 C         140.3181  140.7626  158.7184 C.3     1  UNL1        0.0935
     24 C         142.3898  143.4325  158.0628 C.ar    1  UNL1       -0.0145
     25 C         142.7912  142.3796  157.0727 C.ar    1  UNL1       -0.0038
     26 C         142.9183  142.7266  155.6189 C.ar    1  UNL1       -0.0003
     27 C         142.6441  144.1265  155.1552 C.ar    1  UNL1       -0.0000
     28 C         142.2427  145.1794  156.1453 C.ar    1  UNL1       -0.0003
     29 C         142.1156  144.8325  157.5991 C.ar    1  UNL1       -0.0038
     30 N         142.3243  140.8701  168.3674 N.3     1  UNL1       -0.2893
     31 H         142.7993  140.0594  168.7645 H       1  UNL1        0.1237
     32 C         140.8520  140.6009  168.4666 C.3     1  UNL1        0.1731
     33 C         138.2619  140.8762  164.7971 C.ar    1  UNL1        0.1387
     34 C         138.3118  139.6014  165.5859 C.ar    1  UNL1        0.0366
     35 C         139.1752  139.5096  166.8091 C.ar    1  UNL1        0.0004
     36 C         139.9887  140.6927  167.2434 C.ar    1  UNL1        0.0005
     37 C         139.9388  141.9675  166.4546 C.ar    1  UNL1        0.0004
     38 C         139.0754  142.0593  165.2314 C.ar    1  UNL1        0.0366
     39 C         138.0270  141.1516  162.2243 C.3     1  UNL1        0.2525
     40 O         137.3986  140.9680  163.5739 O.3     1  UNL1       -0.4714
     41 C         140.2431  140.2399  169.7890 C.3     1  UNL1        0.4142
     42 F         139.6342  139.8789  171.1116 F       1  UNL1       -0.1682
     43 F         139.2432  141.3468  169.6308 F       1  UNL1       -0.1682
     44 F         141.2430  139.1331  169.9473 F       1  UNL1       -0.1682
@<TRIPOS>BOND
     1    39    40    1
     2    40    33    1
     3    33    34   ar
     4    34    35   ar
     5    35    36   ar
     6    36    32    1
     7    32    30    1
     8     1    30    1
     9     1     2    1
    10     2     3    1
    11     3     4    1
    12     4     9    1
    13     9    10    2
    14     9    11   am
    15    11    12    1
    16    12    13    1
    17    13    14    1
    18    14    17    1
    19    17    18    2
    20    17    19   am
    21    19    20    1
    22    20    21    1
    23    21    22    1
    24    22    23    1
    25    14    24    1
    26    24    25   ar
    27    25    26   ar
    28    26    27   ar
    29    27    28   ar
    30    28    29   ar
    31    14    15    1
    32    15    16    1
    33     4     5    1
    34     5     6    1
    35     5     7    1
    36     5     8    1
    37    32    41    1
    38    41    42    1
    39    41    43    1
    40    41    44    1
    41    36    37   ar
    42    37    38   ar
    43    38    33   ar
    44     8     1    1
    45    16    11    1
    46    23    19    1
    47    29    24   ar
    48    30    31    1
@<TRIPOS>MOLECULE
*****
 44 48 0 0 0
SMALL
GASTEIGER

@<TRIPOS>ATOM
      1 C         138.4057  141.3705  164.7684 C.3     1  UNL1        0.0544
      2 C         137.4415  141.7960  163.7011 C.3     1  UNL1        0.0162
      3 C         137.8257  142.8718  162.7289 C.3     1  UNL1        0.0104
      4 C         139.1740  143.5221  162.8241 C.3     1  UNL1        0.0768
      5 C         140.1383  143.0966  163.8915 C.3     1  UNL1        0.0095
      6 C         141.3864  143.0376  164.7213 C.3     1  UNL1        0.0005
      7 C         140.9558  144.1519  163.2076 C.3     1  UNL1        0.0005
      8 C         139.7541  142.0208  164.8637 C.3     1  UNL1        0.0162
      9 C         139.5581  144.5980  161.8520 C.2     1  UNL1        0.2251
     10 O         139.5665  146.0336  162.2868 O.2     1  UNL1       -0.2749
     11 N         139.9339  144.2382  160.4451 N.am    1  UNL1       -0.2795
     12 C         139.9255  142.8027  160.0104 C.3     1  UNL1        0.0942
     13 C         140.3012  142.4429  158.6034 C.3     1  UNL1        0.0343
     14 C         140.6854  143.5187  157.6313 C.3     1  UNL1        0.0911
     15 C         140.6938  144.9543  158.0661 C.3     1  UNL1        0.0343
     16 C         140.3180  145.3140  159.4730 C.3     1  UNL1        0.0942
     17 C         140.8275  142.3110  156.7530 C.2     1  UNL1        0.2286
     18 O         139.8115  142.0374  155.6839 O.2     1  UNL1       -0.2746
     19 N         141.9856  141.3771  156.9438 N.am    1  UNL1       -0.2793
     20 C         142.2582  140.1362  156.1463 C.3     1  UNL1        0.0935
     21 C         143.5156  139.5121  156.6751 C.3     1  UNL1        0.0233
     22 C         144.0201  140.3674  157.7995 C.3     1  UNL1        0.0233
     23 C         143.0745  141.5199  157.9655 C.3     1  UNL1        0.0935
     24 C         141.1189  144.1751  156.3542 C.ar    1  UNL1       -0.0145
     25 C         140.1118  144.8773  155.4924 C.ar    1  UNL1       -0.0038
     26 C         140.5453  145.5337  154.2152 C.ar    1  UNL1       -0.0003
     27 C         141.9859  145.4880  153.7998 C.ar    1  UNL1       -0.0000
     28 C         142.9929  144.7858  154.6616 C.ar    1  UNL1       -0.0003
     29 C         142.5595  144.1293  155.9388 C.ar    1  UNL1       -0.0038
     30 N         138.0216  140.2947  165.7405 N.3     1  UNL1       -0.2893
     31 H         138.3993  140.5688  166.6475 H       1  UNL1        0.1237
     32 C         138.4542  138.8785  165.5015 C.3     1  UNL1        0.1731
     33 C         141.3624  137.9414  162.1979 C.ar    1  UNL1        0.1387
     34 C         141.8623  138.1798  163.5919 C.ar    1  UNL1        0.0366
     35 C         140.8929  138.4921  164.6931 C.ar    1  UNL1        0.0004
     36 C         139.4236  138.5661  164.4003 C.ar    1  UNL1        0.0005
     37 C         138.9238  138.3278  163.0063 C.ar    1  UNL1        0.0004
     38 C         139.8932  138.0154  161.9051 C.ar    1  UNL1        0.0366
     39 C         143.7630  138.0631  161.2119 C.3     1  UNL1        0.2525
     40 O         142.3319  137.6290  161.0967 O.3     1  UNL1       -0.4714
     41 C         137.9174  137.7747  166.3637 C.3     1  UNL1        0.4142
     42 F         137.3806  136.6708  167.2260 F       1  UNL1       -0.1682
     43 F         138.5584  136.7601  165.4638 F       1  UNL1       -0.1682
     44 F         137.2765  138.7892  167.2635 F       1  UNL1       -0.1682
@<TRIPOS>BOND
     1    39    40    1
     2    40    33    1
     3    33    34   ar
     4    34    35   ar
     5    35    36   ar
     6    36    32    1
     7    32    30    1
     8     1    30    1
     9     1     2    1
    10     2     3    1
    11     3     4    1
    12     4     9    1
    13     9    10    2
    14     9    11   am
    15    11    12    1
    16    12    13    1
    17    13    14    1
    18    14    17    1
    19    17    18    2
    20    17    19   am
    21    19    20    1
    22    20    21    1
    23    21    22    1
    24    22    23    1
    25    14    24    1
    26    24    25   ar
    27    25    26   ar
    28    26    27   ar
    29    27    28   ar
    30    28    29   ar
    31    14    15    1
    32    15    16    1
    33     4     5    1
    34     5     6    1
    35     5     7    1
    36     5     8    1
    37    32    41    1
    38    41    42    1
    39    41    43    1
    40    41    44    1
    41    36    37   ar
    42    37    38   ar
    43    38    33   ar
    44     8     1    1
    45    16    11    1
    46    23    19    1
    47    29    24   ar
    48    30    31    1
@<TRIPOS>MOLECULE
*****
 44 48 0 0 0
SMALL
GASTEIGER

@<TRIPOS>ATOM
      1 C         140.5675  144.4560  158.7553 C.3     1  UNL1        0.0544
      2 C         140.3158  145.3009  159.9689 C.3     1  UNL1        0.0162
      3 C         141.1802  145.1436  161.1847 C.3     1  UNL1        0.0104
      4 C         142.2962  144.1414  161.1869 C.3     1  UNL1        0.0768
      5 C         142.5479  143.2964  159.9733 C.3     1  UNL1        0.0095
      6 C         143.1755  142.2735  159.0735 C.3     1  UNL1        0.0005
      7 C         143.6302  142.7839  160.8766 C.3     1  UNL1        0.0005
      8 C         141.6836  143.4537  158.7575 C.3     1  UNL1        0.0162
      9 C         143.1605  143.9841  162.4027 C.2     1  UNL1        0.2251
     10 O         144.5241  144.6083  162.4394 O.2     1  UNL1       -0.2749
     11 N         142.6615  143.2027  163.5818 N.am    1  UNL1       -0.2795
     12 C         141.2980  142.5785  163.5450 C.3     1  UNL1        0.0942
     13 C         140.7988  141.7970  164.7241 C.3     1  UNL1        0.0343
     14 C         141.6632  141.6397  165.9399 C.3     1  UNL1        0.0911
     15 C         143.0267  142.2640  165.9766 C.3     1  UNL1        0.0343
     16 C         143.5258  143.0454  164.7976 C.3     1  UNL1        0.0942
     17 C         140.4541  140.8678  166.3783 C.2     1  UNL1        0.2286
     18 O         139.6141  141.3714  167.5145 O.2     1  UNL1       -0.2746
     19 N         140.0849  139.5924  165.6805 N.am    1  UNL1       -0.2793
     20 C         138.9108  138.7174  166.0057 C.3     1  UNL1        0.0935
     21 C         138.9252  137.5522  165.0612 C.3     1  UNL1        0.0233
     22 C         140.1083  137.7072  164.1521 C.3     1  UNL1        0.0233
     23 C         140.8250  138.9681  164.5348 C.3     1  UNL1        0.0935
     24 C         142.1076  141.2144  167.3079 C.ar    1  UNL1       -0.0145
     25 C         142.4793  142.2469  168.3305 C.ar    1  UNL1       -0.0038
     26 C         142.9238  141.8215  169.6986 C.ar    1  UNL1       -0.0003
     27 C         142.9965  140.3637  170.0440 C.ar    1  UNL1       -0.0000
     28 C         142.6248  139.3312  169.0214 C.ar    1  UNL1       -0.0003
     29 C         142.1804  139.7565  167.6534 C.ar    1  UNL1       -0.0038
     30 N         139.7031  144.6133  157.5396 N.3     1  UNL1       -0.2893
     31 H         139.5078  143.6738  157.1936 H       1  UNL1        0.1237
     32 C         140.1937  145.4125  156.3689 C.3     1  UNL1        0.1731
     33 C         138.6450  149.5815  155.6830 C.ar    1  UNL1        0.1387
     34 C         138.4496  148.9184  157.0142 C.ar    1  UNL1        0.0366
     35 C         138.9659  147.5287  157.2428 C.ar    1  UNL1        0.0004
     36 C         139.6775  146.8022  156.1402 C.ar    1  UNL1        0.0005
     37 C         139.8728  147.4653  154.8091 C.ar    1  UNL1        0.0004
     38 C         139.3566  148.8550  154.5805 C.ar    1  UNL1        0.0366
     39 C         139.0542  152.0432  154.9602 C.3     1  UNL1        0.2525
     40 O         138.1287  150.9712  155.4544 O.3     1  UNL1       -0.4714
     41 C         141.2005  144.8220  155.4268 C.3     1  UNL1        0.4142
     42 F         142.2074  144.2315  154.4846 F       1  UNL1       -0.1682
     43 F         140.1028  144.0924  154.7109 F       1  UNL1       -0.1682
     44 F         142.2983  145.5515  156.1427 F       1  UNL1       -0.1682
@<TRIPOS>BOND
     1    39    40    1
     2    40    33    1
     3    33    34   ar
     4    34    35   ar
     5    35    36   ar
     6    36    32    1
     7    32    30    1
     8     1    30    1
     9     1     2    1
    10     2     3    1
    11     3     4    1
    12     4     9    1
    13     9    10    2
    14     9    11   am
    15    11    12    1
    16    12    13    1
    17    13    14    1
    18    14    17    1
    19    17    18    2
    20    17    19   am
    21    19    20    1
    22    20    21    1
    23    21    22    1
    24    22    23    1
    25    14    24    1
    26    24    25   ar
    27    25    26   ar
    28    26    27   ar
    29    27    28   ar
    30    28    29   ar
    31    14    15    1
    32    15    16    1
    33     4     5    1
    34     5     6    1
    35     5     7    1
    36     5     8    1
    37    32    41    1
    38    41    42    1
    39    41    43    1
    40    41    44    1
    41    36    37   ar
    42    37    38   ar
    43    38    33   ar
    44     8     1    1
    45    16    11    1
    46    23    19    1
    47    29    24   ar
    48    30    31    1
@<TRIPOS>MOLECULE
*****
 44 48 0 0 0
SMALL
GASTEIGER

@<TRIPOS>ATOM
      1 C         138.4460  141.3384  164.8630 C.3     1  UNL1        0.0544
      2 C         137.4567  141.8737  163.8707 C.3     1  UNL1        0.0162
      3 C         137.8679  142.9453  162.9051 C.3     1  UNL1        0.0104
      4 C         139.2684  143.4818  162.9318 C.3     1  UNL1        0.0768
      5 C         140.2578  142.9465  163.9242 C.3     1  UNL1        0.0095
      6 C         141.5452  142.7611  164.6713 C.3     1  UNL1        0.0005
      7 C         141.1161  143.9538  163.2181 C.3     1  UNL1        0.0005
      8 C         139.8466  141.8748  164.8898 C.3     1  UNL1        0.0162
      9 C         139.6796  144.5535  161.9662 C.2     1  UNL1        0.2251
     10 O         139.8675  145.9626  162.4450 O.2     1  UNL1       -0.2749
     11 N         139.9030  144.2161  160.5218 N.am    1  UNL1       -0.2795
     12 C         139.7151  142.8071  160.0430 C.3     1  UNL1        0.0942
     13 C         139.9384  142.4697  158.5986 C.3     1  UNL1        0.0343
     14 C         140.3496  143.5414  157.6330 C.3     1  UNL1        0.0911
     15 C         140.5375  144.9505  158.1118 C.3     1  UNL1        0.0343
     16 C         140.3142  145.2878  159.5562 C.3     1  UNL1        0.0942
     17 C         140.2984  142.3623  156.7072 C.2     1  UNL1        0.2286
     18 O         141.5700  141.7701  156.1758 O.2     1  UNL1       -0.2746
     19 N         138.9755  141.7753  156.3128 N.am    1  UNL1       -0.2793
     20 C         138.7680  140.6030  155.4004 C.3     1  UNL1        0.0935
     21 C         137.2921  140.3607  155.2853 C.3     1  UNL1        0.0233
     22 C         136.5876  141.3834  156.1266 C.3     1  UNL1        0.0233
     23 C         137.6279  142.2576  156.7617 C.3     1  UNL1        0.0935
     24 C         140.7430  144.2035  156.3459 C.ar    1  UNL1       -0.0145
     25 C         142.1924  144.4235  156.0280 C.ar    1  UNL1       -0.0038
     26 C         142.5858  145.0858  154.7408 C.ar    1  UNL1       -0.0003
     27 C         141.5299  145.5280  153.7716 C.ar    1  UNL1       -0.0000
     28 C         140.0806  145.3080  154.0895 C.ar    1  UNL1       -0.0003
     29 C         139.6871  144.6458  155.3766 C.ar    1  UNL1       -0.0038
     30 N         138.0348  140.2667  165.8286 N.3     1  UNL1       -0.2893
     31 H         138.4146  140.5285  166.7383 H       1  UNL1        0.1237
     32 C         138.4376  138.8426  165.5846 C.3     1  UNL1        0.1731
     33 C         141.3178  137.8550  162.2712 C.ar    1  UNL1        0.1387
     34 C         139.8523  137.9820  161.9780 C.ar    1  UNL1        0.0366
     35 C         138.8922  138.3112  163.0825 C.ar    1  UNL1        0.0004
     36 C         139.3977  138.5134  164.4802 C.ar    1  UNL1        0.0005
     37 C         140.8632  138.3864  164.7734 C.ar    1  UNL1        0.0004
     38 C         141.8233  138.0572  163.6689 C.ar    1  UNL1        0.0366
     39 C         143.7176  137.9315  161.2787 C.3     1  UNL1        0.2525
     40 O         142.2779  137.5258  161.1667 O.3     1  UNL1       -0.4714
     41 C         137.8803  137.7477  166.4452 C.3     1  UNL1        0.4142
     42 F         137.3231  136.6527  167.3058 F       1  UNL1       -0.1682
     43 F         138.4946  136.7226  165.5386 F       1  UNL1       -0.1682
     44 F         137.2661  138.7728  167.3517 F       1  UNL1       -0.1682
@<TRIPOS>BOND
     1    39    40    1
     2    40    33    1
     3    33    34   ar
     4    34    35   ar
     5    35    36   ar
     6    36    32    1
     7    32    30    1
     8     1    30    1
     9     1     2    1
    10     2     3    1
    11     3     4    1
    12     4     9    1
    13     9    10    2
    14     9    11   am
    15    11    12    1
    16    12    13    1
    17    13    14    1
    18    14    17    1
    19    17    18    2
    20    17    19   am
    21    19    20    1
    22    20    21    1
    23    21    22    1
    24    22    23    1
    25    14    24    1
    26    24    25   ar
    27    25    26   ar
    28    26    27   ar
    29    27    28   ar
    30    28    29   ar
    31    14    15    1
    32    15    16    1
    33     4     5    1
    34     5     6    1
    35     5     7    1
    36     5     8    1
    37    32    41    1
    38    41    42    1
    39    41    43    1
    40    41    44    1
    41    36    37   ar
    42    37    38   ar
    43    38    33   ar
    44     8     1    1
    45    16    11    1
    46    23    19    1
    47    29    24   ar
    48    30    31    1
@<TRIPOS>MOLECULE
*****
 44 48 0 0 0
SMALL
GASTEIGER

@<TRIPOS>ATOM
      1 C         138.4526  141.6642  164.3703 C.3     1  UNL1        0.0544
      2 C         137.4530  142.4137  163.5403 C.3     1  UNL1        0.0162
      3 C         137.9103  143.5102  162.6244 C.3     1  UNL1        0.0104
      4 C         139.3670  143.8570  162.5386 C.3     1  UNL1        0.0768
      5 C         140.3667  143.1075  163.3687 C.3     1  UNL1        0.0095
      6 C         141.6839  142.6881  163.9509 C.3     1  UNL1        0.0005
      7 C         141.2814  144.0582  162.6551 C.3     1  UNL1        0.0005
      8 C         139.9094  142.0110  164.2845 C.3     1  UNL1        0.0162
      9 C         139.8243  144.9535  161.6228 C.2     1  UNL1        0.2251
     10 O         140.1332  146.3130  162.1763 O.2     1  UNL1       -0.2749
     11 N         139.9726  144.6904  160.1535 N.am    1  UNL1       -0.2795
     12 C         139.6637  143.3309  159.6001 C.3     1  UNL1        0.0942
     13 C         139.8121  143.0678  158.1308 C.3     1  UNL1        0.0343
     14 C         140.2693  144.1642  157.2150 C.3     1  UNL1        0.0911
     15 C         140.5782  145.5238  157.7684 C.3     1  UNL1        0.0343
     16 C         140.4299  145.7868  159.2377 C.3     1  UNL1        0.0942
     17 C         140.0986  143.0512  156.2240 C.2     1  UNL1        0.2286
     18 O         141.2602  142.1651  155.8839 O.2     1  UNL1       -0.2746
     19 N         138.7665  142.8243  155.5730 N.am    1  UNL1       -0.2793
     20 C         138.4462  141.7572  154.5686 C.3     1  UNL1        0.0935
     21 C         137.0024  141.8981  154.1870 C.3     1  UNL1        0.0233
     22 C         136.4304  143.0523  154.9555 C.3     1  UNL1        0.0233
     23 C         137.5206  143.6248  155.8121 C.3     1  UNL1        0.0935
     24 C         140.6673  144.8741  155.9550 C.ar    1  UNL1       -0.0145
     25 C         139.8262  146.0001  155.4309 C.ar    1  UNL1       -0.0038
     26 C         140.2242  146.7100  154.1708 C.ar    1  UNL1       -0.0003
     27 C         141.4632  146.2939  153.4349 C.ar    1  UNL1       -0.0000
     28 C         142.3043  145.1680  153.9590 C.ar    1  UNL1       -0.0003
     29 C         141.9064  144.4580  155.2190 C.ar    1  UNL1       -0.0038
     30 N         137.9953  140.5677  165.2862 N.3     1  UNL1       -0.2893
     31 H         137.7284  141.0106  166.1654 H       1  UNL1        0.1237
     32 C         138.9255  139.4432  165.6327 C.3     1  UNL1        0.1731
     33 C         142.0899  140.0286  168.7782 C.ar    1  UNL1        0.1387
     34 C         140.6413  140.1904  169.1323 C.ar    1  UNL1        0.0366
     35 C         139.5865  139.9952  168.0838 C.ar    1  UNL1        0.0004
     36 C         139.9803  139.6383  166.6812 C.ar    1  UNL1        0.0005
     37 C         141.4289  139.4766  166.3270 C.ar    1  UNL1        0.0004
     38 C         142.4836  139.6718  167.3755 C.ar    1  UNL1        0.0366
     39 C         143.6439  141.6029  170.1407 C.3     1  UNL1        0.2525
     40 O         143.1446  140.2238  169.8267 O.3     1  UNL1       -0.4714
     41 C         138.8009  138.1235  164.9307 C.3     1  UNL1        0.4142
     42 F         138.6763  136.8037  164.2286 F       1  UNL1       -0.1682
     43 F         139.5194  138.6884  163.7413 F       1  UNL1       -0.1682
     44 F         138.0825  137.5587  166.1200 F       1  UNL1       -0.1682
@<TRIPOS>BOND
     1    39    40    1
     2    40    33    1
     3    33    34   ar
     4    34    35   ar
     5    35    36   ar
     6    36    32    1
     7    32    30    1
     8     1    30    1
     9     1     2    1
    10     2     3    1
    11     3     4    1
    12     4     9    1
    13     9    10    2
    14     9    11   am
    15    11    12    1
    16    12    13    1
    17    13    14    1
    18    14    17    1
    19    17    18    2
    20    17    19   am
    21    19    20    1
    22    20    21    1
    23    21    22    1
    24    22    23    1
    25    14    24    1
    26    24    25   ar
    27    25    26   ar
    28    26    27   ar
    29    27    28   ar
    30    28    29   ar
    31    14    15    1
    32    15    16    1
    33     4     5    1
    34     5     6    1
    35     5     7    1
    36     5     8    1
    37    32    41    1
    38    41    42    1
    39    41    43    1
    40    41    44    1
    41    36    37   ar
    42    37    38   ar
    43    38    33   ar
    44     8     1    1
    45    16    11    1
    46    23    19    1
    47    29    24   ar
    48    30    31    1
@<TRIPOS>MOLECULE
*****
 44 48 0 0 0
SMALL
GASTEIGER

@<TRIPOS>ATOM
      1 C         143.6835  135.7811  155.9127 C.3     1  UNL1        0.0544
      2 C         142.5651  135.8458  156.9101 C.3     1  UNL1        0.0162
      3 C         142.0572  137.1759  157.3821 C.3     1  UNL1        0.0104
      4 C         142.6677  138.4413  156.8567 C.3     1  UNL1        0.0768
      5 C         143.7862  138.3766  155.8592 C.3     1  UNL1        0.0095
      6 C         144.8574  138.8282  154.9114 C.3     1  UNL1        0.0005
      7 C         143.6503  139.8635  156.0020 C.3     1  UNL1        0.0005
      8 C         144.2941  137.0465  155.3872 C.3     1  UNL1        0.0162
      9 C         142.1597  139.7714  157.3287 C.2     1  UNL1        0.2251
     10 O         141.2276  140.5679  156.4644 O.2     1  UNL1       -0.2749
     11 N         142.5838  140.3050  158.6648 N.am    1  UNL1       -0.2795
     12 C         143.5159  139.5085  159.5290 C.3     1  UNL1        0.0942
     13 C         143.9400  140.0421  160.8652 C.3     1  UNL1        0.0343
     14 C         143.4321  141.3722  161.3372 C.3     1  UNL1        0.0911
     15 C         142.5000  142.1688  160.4730 C.3     1  UNL1        0.0343
     16 C         142.0759  141.6352  159.1368 C.3     1  UNL1        0.0942
     17 C         144.2914  140.9918  162.5063 C.2     1  UNL1        0.2286
     18 O         145.6751  141.5564  162.6353 O.2     1  UNL1       -0.2746
     19 N         143.7670  140.0467  163.5464 N.am    1  UNL1       -0.2793
     20 C         144.5065  139.5772  164.7641 C.3     1  UNL1        0.0935
     21 C         143.6076  138.6456  165.5218 C.3     1  UNL1        0.0233
     22 C         142.3126  138.5393  164.7724 C.3     1  UNL1        0.0233
     23 C         142.4111  139.4052  163.5515 C.3     1  UNL1        0.0935
     24 C         143.2226  142.5702  162.2152 C.ar    1  UNL1       -0.0145
     25 C         142.0086  142.6542  163.0922 C.ar    1  UNL1       -0.0038
     26 C         141.7991  143.8523  163.9703 C.ar    1  UNL1       -0.0003
     27 C         142.8035  144.9662  163.9713 C.ar    1  UNL1       -0.0000
     28 C         144.0175  144.8822  163.0943 C.ar    1  UNL1       -0.0003
     29 C         144.2271  143.6843  162.2162 C.ar    1  UNL1       -0.0038
     30 N         144.1915  134.4509  155.4407 N.3     1  UNL1       -0.2893
     31 H         144.5439  134.5895  154.4936 H       1  UNL1        0.1237
     32 C         143.2678  133.2702  155.3905 C.3     1  UNL1        0.1731
     33 C         144.1518  129.6151  157.8622 C.ar    1  UNL1        0.1387
     34 C         144.8964  130.8918  158.1183 C.ar    1  UNL1        0.0366
     35 C         144.6018  132.1101  157.2944 C.ar    1  UNL1        0.0004
     36 C         143.5624  132.0519  156.2144 C.ar    1  UNL1        0.0005
     37 C         142.8178  130.7752  155.9583 C.ar    1  UNL1        0.0004
     38 C         143.1125  129.5568  156.7822 C.ar    1  UNL1        0.0366
     39 C         143.9726  128.3197  160.1071 C.3     1  UNL1        0.2525
     40 O         144.4465  128.3968  158.6860 O.3     1  UNL1       -0.4714
     41 C         142.0494  133.3078  154.5165 C.3     1  UNL1        0.4142
     42 F         140.8309  133.3455  153.6423 F       1  UNL1       -0.1682
     43 F         141.1791  133.4086  155.7340 F       1  UNL1       -0.1682
     44 F         142.9197  133.2071  153.2990 F       1  UNL1       -0.1682
@<TRIPOS>BOND
     1    39    40    1
     2    40    33    1
     3    33    34   ar
     4    34    35   ar
     5    35    36   ar
     6    36    32    1
     7    32    30    1
     8     1    30    1
     9     1     2    1
    10     2     3    1
    11     3     4    1
    12     4     9    1
    13     9    10    2
    14     9    11   am
    15    11    12    1
    16    12    13    1
    17    13    14    1
    18    14    17    1
    19    17    18    2
    20    17    19   am
    21    19    20    1
    22    20    21    1
    23    21    22    1
    24    22    23    1
    25    14    24    1
    26    24    25   ar
    27    25    26   ar
    28    26    27   ar
    29    27    28   ar
    30    28    29   ar
    31    14    15    1
    32    15    16    1
    33     4     5    1
    34     5     6    1
    35     5     7    1
    36     5     8    1
    37    32    41    1
    38    41    42    1
    39    41    43    1
    40    41    44    1
    41    36    37   ar
    42    37    38   ar
    43    38    33   ar
    44     8     1    1
    45    16    11    1
    46    23    19    1
    47    29    24   ar
    48    30    31    1
@<TRIPOS>MOLECULE
*****
 44 48 0 0 0
SMALL
GASTEIGER

@<TRIPOS>ATOM
      1 C         138.3686  141.6756  164.4474 C.3     1  UNL1        0.0544
      2 C         137.4199  142.1744  163.3980 C.3     1  UNL1        0.0162
      3 C         137.8611  143.2316  162.4296 C.3     1  UNL1        0.0104
      4 C         139.2509  143.7899  162.5105 C.3     1  UNL1        0.0768
      5 C         140.1997  143.2911  163.5599 C.3     1  UNL1        0.0095
      6 C         141.4527  143.1414  164.3708 C.3     1  UNL1        0.0005
      7 C         141.0760  144.2962  162.8731 C.3     1  UNL1        0.0005
      8 C         139.7585  142.2340  164.5284 C.3     1  UNL1        0.0162
      9 C         139.6921  144.8470  161.5421 C.2     1  UNL1        0.2251
     10 O         139.7669  146.2801  161.9789 O.2     1  UNL1       -0.2749
     11 N         140.0584  144.4712  160.1370 N.am    1  UNL1       -0.2795
     12 C         139.9835  143.0381  159.7003 C.3     1  UNL1        0.0942
     13 C         140.3499  142.6622  158.2950 C.3     1  UNL1        0.0343
     14 C         140.7910  143.7193  157.3266 C.3     1  UNL1        0.0911
     15 C         140.8659  145.1524  157.7634 C.3     1  UNL1        0.0343
     16 C         140.4996  145.5283  159.1686 C.3     1  UNL1        0.0942
     17 C         140.8801  142.5072  156.4475 C.2     1  UNL1        0.2286
     18 O         139.8689  142.2932  155.3604 O.2     1  UNL1       -0.2746
     19 N         141.9803  141.5091  156.6555 N.am    1  UNL1       -0.2793
     20 C         142.1964  140.2563  155.8594 C.3     1  UNL1        0.0935
     21 C         143.4073  139.5615  156.4079 C.3     1  UNL1        0.0233
     22 C         143.9397  140.3849  157.5431 C.3     1  UNL1        0.0233
     23 C         143.0578  141.5886  157.6961 C.3     1  UNL1        0.0935
     24 C         141.2631  144.3555  156.0529 C.ar    1  UNL1       -0.0145
     25 C         142.6926  144.2047  155.6242 C.ar    1  UNL1       -0.0038
     26 C         143.1647  144.8409  154.3504 C.ar    1  UNL1       -0.0003
     27 C         142.2074  145.6279  153.5055 C.ar    1  UNL1       -0.0000
     28 C         140.7779  145.7787  153.9342 C.ar    1  UNL1       -0.0003
     29 C         140.3057  145.1426  155.2079 C.ar    1  UNL1       -0.0038
     30 N         137.9274  140.6185  165.4158 N.3     1  UNL1       -0.2893
     31 H         137.6562  141.0995  166.2734 H       1  UNL1        0.1237
     32 C         138.8730  139.5241  165.8136 C.3     1  UNL1        0.1731
     33 C         142.1918  140.3688  168.7328 C.ar    1  UNL1        0.1387
     34 C         140.7642  140.5925  169.1350 C.ar    1  UNL1        0.0366
     35 C         139.6579  140.3110  168.1619 C.ar    1  UNL1        0.0004
     36 C         139.9792  139.8057  166.7867 C.ar    1  UNL1        0.0005
     37 C         141.4069  139.5820  166.3845 C.ar    1  UNL1        0.0004
     38 C         142.5131  139.8636  167.3576 C.ar    1  UNL1        0.0366
     39 C         143.7667  142.0588  169.9217 C.3     1  UNL1        0.2525
     40 O         143.2981  140.6504  169.7059 O.3     1  UNL1       -0.4714
     41 C         138.7122  138.1482  165.2384 C.3     1  UNL1        0.4142
     42 F         138.5515  136.7722  164.6630 F       1  UNL1       -0.1682
     43 F         138.0355  137.6999  166.4997 F       1  UNL1       -0.1682
     44 F         139.3889  138.5965  163.9770 F       1  UNL1       -0.1682
@<TRIPOS>BOND
     1    39    40    1
     2    40    33    1
     3    33    34   ar
     4    34    35   ar
     5    35    36   ar
     6    36    32    1
     7    32    30    1
     8     1    30    1
     9     1     2    1
    10     2     3    1
    11     3     4    1
    12     4     9    1
    13     9    10    2
    14     9    11   am
    15    11    12    1
    16    12    13    1
    17    13    14    1
    18    14    17    1
    19    17    18    2
    20    17    19   am
    21    19    20    1
    22    20    21    1
    23    21    22    1
    24    22    23    1
    25    14    24    1
    26    24    25   ar
    27    25    26   ar
    28    26    27   ar
    29    27    28   ar
    30    28    29   ar
    31    14    15    1
    32    15    16    1
    33     4     5    1
    34     5     6    1
    35     5     7    1
    36     5     8    1
    37    32    41    1
    38    41    42    1
    39    41    43    1
    40    41    44    1
    41    36    37   ar
    42    37    38   ar
    43    38    33   ar
    44     8     1    1
    45    16    11    1
    46    23    19    1
    47    29    24   ar
    48    30    31    1
@<TRIPOS>MOLECULE
*****
 44 48 0 0 0
SMALL
GASTEIGER

@<TRIPOS>ATOM
      1 C         141.0605  144.1023  158.4761 C.3     1  UNL1        0.0544
      2 C         141.4054  145.1567  159.4857 C.3     1  UNL1        0.0162
      3 C         140.6854  145.2000  160.8009 C.3     1  UNL1        0.0104
      4 C         139.6205  144.1888  161.1065 C.3     1  UNL1        0.0768
      5 C         139.2755  143.1344  160.0970 C.3     1  UNL1        0.0095
      6 C         138.5989  141.9524  159.4683 C.3     1  UNL1        0.0005
      7 C         138.3205  142.7672  161.1938 C.3     1  UNL1        0.0005
      8 C         139.9955  143.0911  158.7818 C.3     1  UNL1        0.0162
      9 C         138.9005  144.2321  162.4217 C.2     1  UNL1        0.2251
     10 O         137.5629  144.9035  162.5228 O.2     1  UNL1       -0.2749
     11 N         139.5180  143.6040  163.6358 N.am    1  UNL1       -0.2795
     12 C         140.8555  142.9326  163.5347 C.3     1  UNL1        0.0942
     13 C         141.4731  142.3045  164.7489 C.3     1  UNL1        0.0343
     14 C         140.7531  142.3477  166.0641 C.3     1  UNL1        0.0911
     15 C         139.4155  143.0192  166.1651 C.3     1  UNL1        0.0343
     16 C         138.7980  143.6473  164.9510 C.3     1  UNL1        0.0942
     17 C         141.9898  141.6014  166.4685 C.2     1  UNL1        0.2286
     18 O         143.0355  142.2792  167.3035 O.2     1  UNL1       -0.2746
     19 N         142.1808  140.1773  166.0380 N.am    1  UNL1       -0.2793
     20 C         143.3591  139.3081  166.3639 C.3     1  UNL1        0.0935
     21 C         143.1336  137.9659  165.7334 C.3     1  UNL1        0.0233
     22 C         141.8158  138.0055  165.0178 C.3     1  UNL1        0.0233
     23 C         141.2270  139.3722  165.2061 C.3     1  UNL1        0.0935
     24 C         140.4626  142.1318  167.5197 C.ar    1  UNL1       -0.0145
     25 C         139.9816  140.7940  167.9981 C.ar    1  UNL1       -0.0038
     26 C         139.6910  140.5781  169.4538 C.ar    1  UNL1       -0.0003
     27 C         139.8815  141.6998  170.4311 C.ar    1  UNL1       -0.0000
     28 C         140.3626  143.0376  169.9527 C.ar    1  UNL1       -0.0003
     29 C         140.6531  143.2537  168.4970 C.ar    1  UNL1       -0.0038
     30 N         141.7805  144.0591  157.1609 N.3     1  UNL1       -0.2893
     31 H         142.4840  144.7972  157.1860 H       1  UNL1        0.1237
     32 C         141.0166  144.2321  155.8817 C.3     1  UNL1        0.1731
     33 C         139.6368  148.3257  154.6211 C.ar    1  UNL1        0.1387
     34 C         139.1452  147.7317  155.9078 C.ar    1  UNL1        0.0366
     35 C         139.6052  146.3672  156.3280 C.ar    1  UNL1        0.0004
     36 C         140.5567  145.5966  155.4615 C.ar    1  UNL1        0.0005
     37 C         141.0482  146.1906  154.1748 C.ar    1  UNL1        0.0004
     38 C         140.5883  147.5551  153.7547 C.ar    1  UNL1        0.0366
     39 C         138.8491  150.7234  155.2377 C.3     1  UNL1        0.2525
     40 O         139.1769  149.6902  154.2009 O.3     1  UNL1       -0.4714
     41 C         140.7127  143.0407  155.0226 C.3     1  UNL1        0.4142
     42 F         140.4087  141.8492  154.1635 F       1  UNL1       -0.1682
     43 F         142.1454  142.9937  154.5810 F       1  UNL1       -0.1682
     44 F         139.2800  143.0877  155.4643 F       1  UNL1       -0.1682
@<TRIPOS>BOND
     1    39    40    1
     2    40    33    1
     3    33    34   ar
     4    34    35   ar
     5    35    36   ar
     6    36    32    1
     7    32    30    1
     8     1    30    1
     9     1     2    1
    10     2     3    1
    11     3     4    1
    12     4     9    1
    13     9    10    2
    14     9    11   am
    15    11    12    1
    16    12    13    1
    17    13    14    1
    18    14    17    1
    19    17    18    2
    20    17    19   am
    21    19    20    1
    22    20    21    1
    23    21    22    1
    24    22    23    1
    25    14    24    1
    26    24    25   ar
    27    25    26   ar
    28    26    27   ar
    29    27    28   ar
    30    28    29   ar
    31    14    15    1
    32    15    16    1
    33     4     5    1
    34     5     6    1
    35     5     7    1
    36     5     8    1
    37    32    41    1
    38    41    42    1
    39    41    43    1
    40    41    44    1
    41    36    37   ar
    42    37    38   ar
    43    38    33   ar
    44     8     1    1
    45    16    11    1
    46    23    19    1
    47    29    24   ar
    48    30    31    1
