@<TRIPOS>MOLECULE
*****
 34 39 0 0 0
SMALL
GASTEIGER

@<TRIPOS>ATOM
      1 C         142.6021  136.7402  157.7986 C.3     1  UNL1        0.1161
      2 C         143.3101  135.4321  157.6045 C.3     1  UNL1        0.0510
      3 C         142.9602  134.5557  156.4386 C.2     1  UNL1       -0.0044
      4 C         141.9023  134.9874  155.4667 C.2     1  UNL1        0.0689
      5 N         141.7721  133.9213  154.4196 N.2     1  UNL1       -0.2526
      6 C         142.7495  132.8307  154.7443 C.2     1  UNL1        0.0627
      7 C         143.0656  131.5313  154.0650 C.3     1  UNL1        0.0717
      8 C         144.1162  130.6240  154.6334 C.2     1  UNL1       -0.0198
      9 C         144.8505  131.0161  155.8812 C.2     1  UNL1       -0.0042
     10 C         144.5343  132.3155  156.5606 C.2     1  UNL1        0.0006
     11 C         143.4838  133.2228  155.9921 C.2     1  UNL1        0.0111
     12 C         141.1943  136.2955  155.6609 C.3     1  UNL1        0.0949
     13 N         141.5442  137.1719  156.8268 N.3     1  UNL1       -0.2887
     14 H         140.6871  137.3036  157.3638 H       1  UNL1        0.1239
     15 C         143.2673  138.4266  161.2307 C.ar    1  UNL1        0.0791
     16 C         143.7137  139.5038  160.2871 C.ar    1  UNL1        0.1172
     17 N         143.5189  139.0032  158.8866 N.ar    1  UNL1       -0.2282
     18 C         142.9521  137.6166  158.9647 C.ar    1  UNL1        0.1318
     19 N         142.7966  137.2602  160.4133 N.ar    1  UNL1       -0.3396
     20 H         142.4469  136.4101  160.7658 H       1  UNL1        0.1671
     21 F         143.3501  138.7298  167.2225 F       1  UNL1       -0.2041
     22 C         143.3295  138.6540  165.7245 C.ar    1  UNL1        0.1424
     23 C         144.4745  139.2080  164.9296 C.ar    1  UNL1        0.0298
     24 C         144.4538  139.1322  163.4317 C.ar    1  UNL1        0.0060
     25 C         143.2880  138.5024  162.7287 C.ar    1  UNL1        0.0447
     26 C         142.1429  137.9484  163.5236 C.ar    1  UNL1        0.1437
     27 F         140.9771  137.3186  162.8205 F       1  UNL1       -0.2040
     28 C         142.1637  138.0242  165.0215 C.ar    1  UNL1        0.0593
     29 C         140.1364  136.7272  154.6890 C.3     1  UNL1        0.0252
     30 C         140.4100  136.6849  153.2149 C.3     1  UNL1        0.0339
     31 C         139.3520  137.1166  152.2430 C.3     1  UNL1        0.1422
     32 O         138.0205  137.5906  152.7454 O.3     1  UNL1       -0.3538
     33 C         137.7469  137.6328  154.2197 C.3     1  UNL1        0.1422
     34 C         138.8048  137.2011  155.1914 C.3     1  UNL1        0.0339
@<TRIPOS>BOND
     1    21    22    1
     2    22    23   ar
     3    23    24   ar
     4    24    25   ar
     5    25    15    1
     6    15    16   ar
     7    16    17   ar
     8    17    18   ar
     9     1    18    1
    10     1     2    1
    11     2     3    1
    12     3     4    2
    13     4     5    1
    14     5     6    2
    15     6     7    1
    16     7     8    1
    17     8     9    2
    18     9    10    1
    19    10    11    2
    20     4    12    1
    21    12    29    1
    22    29    30    1
    23    30    31    1
    24    31    32    1
    25    32    33    1
    26    33    34    1
    27    12    13    1
    28    18    19   ar
    29    25    26   ar
    30    26    27    1
    31    26    28   ar
    32    28    22   ar
    33    19    15   ar
    34    13     1    1
    35    11     3    1
    36    34    29    1
    37    11     6    1
    38    13    14    1
    39    19    20    1
@<TRIPOS>MOLECULE
*****
 34 39 0 0 0
SMALL
GASTEIGER

@<TRIPOS>ATOM
      1 C         141.8717  139.6294  159.5735 C.3     1  UNL1        0.1161
      2 C         142.9570  140.5620  159.1235 C.3     1  UNL1        0.0510
      3 C         143.7488  140.2506  157.8882 C.2     1  UNL1       -0.0044
      4 C         143.4554  139.0068  157.1029 C.2     1  UNL1        0.0689
      5 N         144.3954  138.9635  155.9348 N.2     1  UNL1       -0.2526
      6 C         145.2699  140.1806  155.9982 C.2     1  UNL1        0.0627
      7 C         146.3783  140.6673  155.1125 C.3     1  UNL1        0.0717
      8 C         147.0872  141.9495  155.4342 C.2     1  UNL1       -0.0198
      9 C         146.6876  142.7450  156.6415 C.2     1  UNL1       -0.0042
     10 C         145.5791  142.2583  157.5271 C.2     1  UNL1        0.0006
     11 C         144.8702  140.9761  157.2054 C.2     1  UNL1        0.0111
     12 C         142.3700  138.0743  157.5529 C.3     1  UNL1        0.0949
     13 N         141.5782  138.3856  158.7883 N.3     1  UNL1       -0.2887
     14 H         141.7044  137.5988  159.4250 H       1  UNL1        0.1239
     15 C         140.0123  141.1495  162.6228 C.ar    1  UNL1        0.0791
     16 C         139.7105  139.6906  162.7971 C.ar    1  UNL1        0.1172
     17 N         140.3703  138.9436  161.6760 N.ar    1  UNL1       -0.2282
     18 C         141.0798  139.9408  160.8090 C.ar    1  UNL1        0.1318
     19 N         140.8587  141.3042  161.3940 N.ar    1  UNL1       -0.3396
     20 H         141.2077  142.1517  161.0346 H       1  UNL1        0.1671
     21 F         138.1598  145.5875  166.2106 F       1  UNL1       -0.2041
     22 C         138.6230  144.4779  165.3137 C.ar    1  UNL1        0.1424
     23 C         139.7589  143.5951  165.7380 C.ar    1  UNL1        0.0298
     24 C         140.2220  142.4856  164.8411 C.ar    1  UNL1        0.0060
     25 C         139.5492  142.2590  163.5197 C.ar    1  UNL1        0.0447
     26 C         138.4132  143.1419  163.0954 C.ar    1  UNL1        0.1437
     27 F         137.7403  142.9152  161.7740 F       1  UNL1       -0.2040
     28 C         137.9501  144.2513  163.9923 C.ar    1  UNL1        0.0593
     29 C         142.0766  136.8304  156.7677 C.3     1  UNL1        0.0252
     30 C         142.9002  135.5955  156.9833 C.3     1  UNL1        0.0339
     31 C         142.6066  134.3516  156.1979 C.3     1  UNL1        0.1422
     32 O         141.4895  134.3427  155.1970 O.3     1  UNL1       -0.3538
     33 C         140.6658  135.5777  154.9814 C.3     1  UNL1        0.1422
     34 C         140.9594  136.8215  155.7667 C.3     1  UNL1        0.0339
@<TRIPOS>BOND
     1    21    22    1
     2    22    23   ar
     3    23    24   ar
     4    24    25   ar
     5    25    15    1
     6    15    16   ar
     7    16    17   ar
     8    17    18   ar
     9     1    18    1
    10     1     2    1
    11     2     3    1
    12     3     4    2
    13     4     5    1
    14     5     6    2
    15     6     7    1
    16     7     8    1
    17     8     9    2
    18     9    10    1
    19    10    11    2
    20     4    12    1
    21    12    29    1
    22    29    30    1
    23    30    31    1
    24    31    32    1
    25    32    33    1
    26    33    34    1
    27    12    13    1
    28    18    19   ar
    29    25    26   ar
    30    26    27    1
    31    26    28   ar
    32    28    22   ar
    33    19    15   ar
    34    13     1    1
    35    11     3    1
    36    34    29    1
    37    11     6    1
    38    13    14    1
    39    19    20    1
@<TRIPOS>MOLECULE
*****
 34 39 0 0 0
SMALL
GASTEIGER

@<TRIPOS>ATOM
      1 C         143.1449  139.2871  158.0305 C.3     1  UNL1        0.1161
      2 C         142.3553  140.4617  157.5338 C.3     1  UNL1        0.0510
      3 C         142.1906  141.6751  158.4002 C.2     1  UNL1       -0.0044
      4 C         142.8155  141.7138  159.7632 C.2     1  UNL1        0.0689
      5 N         142.4846  143.0370  160.3874 N.2     1  UNL1       -0.2526
      6 C         141.6551  143.8160  159.4101 C.2     1  UNL1        0.0627
      7 C         141.0418  145.1831  159.4800 C.3     1  UNL1        0.0717
      8 C         140.2468  145.7085  158.3216 C.2     1  UNL1       -0.0198
      9 C         140.0651  144.8668  157.0934 C.2     1  UNL1       -0.0042
     10 C         140.6784  143.4997  157.0235 C.2     1  UNL1        0.0006
     11 C         141.4734  142.9743  158.1819 C.2     1  UNL1        0.0111
     12 C         143.6052  140.5391  160.2599 C.3     1  UNL1        0.0949
     13 N         143.7699  139.3258  159.3935 N.3     1  UNL1       -0.2887
     14 H         143.3873  138.5372  159.9154 H       1  UNL1        0.1239
     15 C         143.1126  135.8188  156.2883 C.ar    1  UNL1        0.0791
     16 C         144.0134  136.5943  155.3734 C.ar    1  UNL1        0.1172
     17 N         144.1352  137.9879  155.9146 N.ar    1  UNL1       -0.2282
     18 C         143.3096  138.0737  157.1640 C.ar    1  UNL1        0.1318
     19 N         142.6777  136.7331  157.3950 N.ar    1  UNL1       -0.3396
     20 H         142.0820  136.4951  158.1419 H       1  UNL1        0.1671
     21 F         141.5275  130.0688  155.6358 F       1  UNL1       -0.2041
     22 C         141.9238  131.5063  155.7989 C.ar    1  UNL1        0.1424
     23 C         141.2569  132.5664  154.9735 C.ar    1  UNL1        0.0298
     24 C         141.6532  134.0039  155.1366 C.ar    1  UNL1        0.0060
     25 C         142.7164  134.3812  156.1252 C.ar    1  UNL1        0.0447
     26 C         143.3832  133.3211  156.9506 C.ar    1  UNL1        0.1437
     27 F         144.4464  133.6985  157.9392 F       1  UNL1       -0.2040
     28 C         142.9870  131.8837  156.7875 C.ar    1  UNL1        0.0593
     29 C         144.2301  140.5778  161.6230 C.3     1  UNL1        0.0252
     30 C         144.0371  139.4303  162.5694 C.3     1  UNL1        0.0339
     31 C         144.6621  139.4690  163.9325 C.3     1  UNL1        0.1422
     32 O         145.4800  140.6553  164.3491 O.3     1  UNL1       -0.3538
     33 C         145.6730  141.8030  163.4026 C.3     1  UNL1        0.1422
     34 C         145.0481  141.7642  162.0397 C.3     1  UNL1        0.0339
@<TRIPOS>BOND
     1    21    22    1
     2    22    23   ar
     3    23    24   ar
     4    24    25   ar
     5    25    15    1
     6    15    16   ar
     7    16    17   ar
     8    17    18   ar
     9     1    18    1
    10     1     2    1
    11     2     3    1
    12     3     4    2
    13     4     5    1
    14     5     6    2
    15     6     7    1
    16     7     8    1
    17     8     9    2
    18     9    10    1
    19    10    11    2
    20     4    12    1
    21    12    29    1
    22    29    30    1
    23    30    31    1
    24    31    32    1
    25    32    33    1
    26    33    34    1
    27    12    13    1
    28    18    19   ar
    29    25    26   ar
    30    26    27    1
    31    26    28   ar
    32    28    22   ar
    33    19    15   ar
    34    13     1    1
    35    11     3    1
    36    34    29    1
    37    11     6    1
    38    13    14    1
    39    19    20    1
@<TRIPOS>MOLECULE
*****
 34 39 0 0 0
SMALL
GASTEIGER

@<TRIPOS>ATOM
      1 C         142.0538  140.0011  160.6720 C.3     1  UNL1        0.1161
      2 C         142.5047  139.3687  161.9553 C.3     1  UNL1        0.0510
      3 C         142.2044  140.0344  163.2655 C.2     1  UNL1       -0.0044
      4 C         141.4531  141.3324  163.2924 C.2     1  UNL1        0.0689
      5 N         141.3037  141.7518  164.7248 N.2     1  UNL1       -0.2526
      6 C         141.9626  140.7130  165.5832 C.2     1  UNL1        0.0627
      7 C         142.1275  140.5965  167.0695 C.3     1  UNL1        0.0717
      8 C         142.8492  139.4186  167.6539 C.2     1  UNL1       -0.0198
      9 C         143.4059  138.3571  166.7520 C.2     1  UNL1       -0.0042
     10 C         143.2409  138.4736  165.2657 C.2     1  UNL1        0.0006
     11 C         142.5193  139.6516  164.6813 C.2     1  UNL1        0.0111
     12 C         141.0022  141.9648  162.0091 C.3     1  UNL1        0.0949
     13 N         141.3025  141.2991  160.6989 N.3     1  UNL1       -0.2887
     14 H         141.8447  141.9646  160.1480 H       1  UNL1        0.1239
     15 C         142.4884  137.6822  157.5899 C.ar    1  UNL1        0.0791
     16 C         143.1443  138.9396  157.1014 C.ar    1  UNL1        0.1172
     17 N         143.0614  139.9613  158.1965 N.ar    1  UNL1       -0.2282
     18 C         142.3542  139.3353  159.3618 C.ar    1  UNL1        0.1318
     19 N         142.0000  137.9268  158.9870 N.ar    1  UNL1       -0.3396
     20 H         141.5296  137.2770  159.5576 H       1  UNL1        0.1671
     21 F         141.9180  132.5714  154.4988 F       1  UNL1       -0.2041
     22 C         142.0607  133.8491  155.2716 C.ar    1  UNL1        0.1424
     23 C         143.1345  133.9814  156.3105 C.ar    1  UNL1        0.0298
     24 C         143.2771  135.2591  157.0832 C.ar    1  UNL1        0.0060
     25 C         142.3458  136.4045  156.8171 C.ar    1  UNL1        0.0447
     26 C         141.2719  136.2722  155.7782 C.ar    1  UNL1        0.1437
     27 F         140.3406  137.4175  155.5121 F       1  UNL1       -0.2040
     28 C         141.1294  134.9945  155.0055 C.ar    1  UNL1        0.0593
     29 C         140.2509  143.2628  162.0360 C.3     1  UNL1        0.0252
     30 C         140.8324  144.4796  161.3796 C.3     1  UNL1        0.0339
     31 C         140.0810  145.7777  161.4065 C.3     1  UNL1        0.1422
     32 O         138.7482  145.8588  162.0899 O.3     1  UNL1       -0.3538
     33 C         138.1667  144.6418  162.7464 C.3     1  UNL1        0.1422
     34 C         138.9180  143.3439  162.7194 C.3     1  UNL1        0.0339
@<TRIPOS>BOND
     1    21    22    1
     2    22    23   ar
     3    23    24   ar
     4    24    25   ar
     5    25    15    1
     6    15    16   ar
     7    16    17   ar
     8    17    18   ar
     9     1    18    1
    10     1     2    1
    11     2     3    1
    12     3     4    2
    13     4     5    1
    14     5     6    2
    15     6     7    1
    16     7     8    1
    17     8     9    2
    18     9    10    1
    19    10    11    2
    20     4    12    1
    21    12    29    1
    22    29    30    1
    23    30    31    1
    24    31    32    1
    25    32    33    1
    26    33    34    1
    27    12    13    1
    28    18    19   ar
    29    25    26   ar
    30    26    27    1
    31    26    28   ar
    32    28    22   ar
    33    19    15   ar
    34    13     1    1
    35    11     3    1
    36    34    29    1
    37    11     6    1
    38    13    14    1
    39    19    20    1
@<TRIPOS>MOLECULE
*****
 34 39 0 0 0
SMALL
GASTEIGER

@<TRIPOS>ATOM
      1 C         143.2801  139.8166  158.1142 C.3     1  UNL1        0.1161
      2 C         143.8353  139.8416  159.5074 C.3     1  UNL1        0.0510
      3 C         143.6874  141.0725  160.3518 C.2     1  UNL1       -0.0044
      4 C         142.9843  142.2784  159.8029 C.2     1  UNL1        0.0689
      5 N         142.9907  143.3406  160.8620 N.2     1  UNL1       -0.2526
      6 C         143.6978  142.7912  162.0654 C.2     1  UNL1        0.0627
      7 C         144.0051  143.3862  163.4076 C.3     1  UNL1        0.0717
      8 C         144.7431  142.5794  164.4344 C.2     1  UNL1       -0.0198
      9 C         145.1738  141.1775  164.1190 C.2     1  UNL1       -0.0042
     10 C         144.8664  140.5825  162.7769 C.2     1  UNL1        0.0006
     11 C         144.1284  141.3893  161.7501 C.2     1  UNL1        0.0111
     12 C         142.4290  142.2535  158.4097 C.3     1  UNL1        0.0949
     13 N         142.5769  141.0226  157.5653 N.3     1  UNL1       -0.2887
     14 H         143.0829  141.3013  156.7246 H       1  UNL1        0.1239
     15 C         143.3187  136.2854  156.5034 C.ar    1  UNL1        0.0791
     16 C         143.9926  137.0975  155.4375 C.ar    1  UNL1        0.1172
     17 N         144.0601  138.5192  155.9111 N.ar    1  UNL1       -0.2282
     18 C         143.4280  138.5857  157.2697 C.ar    1  UNL1        0.1318
     19 N         142.9697  137.2051  157.6359 N.ar    1  UNL1       -0.3396
     20 H         142.5191  136.9479  158.4725 H       1  UNL1        0.1671
     21 F         142.2128  130.3925  156.2774 F       1  UNL1       -0.2041
     22 C         142.4893  131.8658  156.3340 C.ar    1  UNL1        0.1424
     23 C         143.6450  132.3816  157.1391 C.ar    1  UNL1        0.0298
     24 C         143.9214  133.8548  157.1956 C.ar    1  UNL1        0.0060
     25 C         143.0422  134.8121  156.4469 C.ar    1  UNL1        0.0447
     26 C         141.8865  134.2963  155.6418 C.ar    1  UNL1        0.1437
     27 F         141.0073  135.2536  154.8931 F       1  UNL1       -0.2040
     28 C         141.6101  132.8231  155.5853 C.ar    1  UNL1        0.0593
     29 C         141.7259  143.4594  157.8608 C.3     1  UNL1        0.0252
     30 C         140.2650  143.3891  157.5282 C.3     1  UNL1        0.0339
     31 C         139.5619  144.5951  156.9793 C.3     1  UNL1        0.1422
     32 O         140.3197  145.8714  156.7631 O.3     1  UNL1       -0.3538
     33 C         141.7806  145.9418  157.0958 C.3     1  UNL1        0.1422
     34 C         142.4837  144.7358  157.6447 C.3     1  UNL1        0.0339
@<TRIPOS>BOND
     1    21    22    1
     2    22    23   ar
     3    23    24   ar
     4    24    25   ar
     5    25    15    1
     6    15    16   ar
     7    16    17   ar
     8    17    18   ar
     9     1    18    1
    10     1     2    1
    11     2     3    1
    12     3     4    2
    13     4     5    1
    14     5     6    2
    15     6     7    1
    16     7     8    1
    17     8     9    2
    18     9    10    1
    19    10    11    2
    20     4    12    1
    21    12    29    1
    22    29    30    1
    23    30    31    1
    24    31    32    1
    25    32    33    1
    26    33    34    1
    27    12    13    1
    28    18    19   ar
    29    25    26   ar
    30    26    27    1
    31    26    28   ar
    32    28    22   ar
    33    19    15   ar
    34    13     1    1
    35    11     3    1
    36    34    29    1
    37    11     6    1
    38    13    14    1
    39    19    20    1
@<TRIPOS>MOLECULE
*****
 34 39 0 0 0
SMALL
GASTEIGER

@<TRIPOS>ATOM
      1 C         140.9055  144.2896  157.8880 C.3     1  UNL1        0.1161
      2 C         141.2205  144.7187  159.2903 C.3     1  UNL1        0.0510
      3 C         142.0008  143.8116  160.1948 C.2     1  UNL1       -0.0044
      4 C         142.4662  142.4754  159.6970 C.2     1  UNL1        0.0689
      5 N         143.2115  141.8001  160.8098 N.2     1  UNL1       -0.2526
      6 C         143.2067  142.7189  161.9955 C.2     1  UNL1        0.0627
      7 C         143.7870  142.5841  163.3721 C.3     1  UNL1        0.0717
      8 C         143.6191  143.6926  164.3686 C.2     1  UNL1       -0.0198
      9 C         142.8708  144.9358  163.9885 C.2     1  UNL1       -0.0042
     10 C         142.2905  145.0706  162.6119 C.2     1  UNL1        0.0006
     11 C         142.4585  143.9621  161.6154 C.2     1  UNL1        0.0111
     12 C         142.1512  142.0463  158.2946 C.3     1  UNL1        0.0949
     13 N         141.3708  142.9533  157.3901 N.3     1  UNL1       -0.2887
     14 H         140.5376  142.4389  157.1048 H       1  UNL1        0.1239
     15 C         139.3456  147.1733  155.8104 C.ar    1  UNL1        0.0791
     16 C         138.5028  146.0121  155.3728 C.ar    1  UNL1        0.1172
     17 N         138.9846  144.7905  156.0978 N.ar    1  UNL1       -0.2282
     18 C         140.1250  145.1968  156.9834 C.ar    1  UNL1        0.1318
     19 N         140.3482  146.6694  156.8058 N.ar    1  UNL1       -0.3396
     20 H         141.0325  147.2102  157.2623 H       1  UNL1        0.1671
     21 F         138.8018  152.8391  153.9120 F       1  UNL1       -0.2041
     22 C         138.9377  151.4226  154.3866 C.ar    1  UNL1        0.1424
     23 C         139.5792  150.3940  153.5032 C.ar    1  UNL1        0.0298
     24 C         139.7151  148.9776  153.9778 C.ar    1  UNL1        0.0060
     25 C         139.2096  148.5898  155.3358 C.ar    1  UNL1        0.0447
     26 C         138.5681  149.6184  156.2192 C.ar    1  UNL1        0.1437
     27 F         138.0626  149.2306  157.5771 F       1  UNL1       -0.2040
     28 C         138.4322  151.0348  155.7446 C.ar    1  UNL1        0.0593
     29 C         142.6166  140.7100  157.7967 C.3     1  UNL1        0.0252
     30 C         142.1343  139.4535  158.4588 C.3     1  UNL1        0.0339
     31 C         142.5998  138.1172  157.9608 C.3     1  UNL1        0.1422
     32 O         143.5474  138.0376  156.8009 O.3     1  UNL1       -0.3538
     33 C         144.0298  139.2942  156.1388 C.3     1  UNL1        0.1422
     34 C         143.5643  140.6304  156.6367 C.3     1  UNL1        0.0339
@<TRIPOS>BOND
     1    21    22    1
     2    22    23   ar
     3    23    24   ar
     4    24    25   ar
     5    25    15    1
     6    15    16   ar
     7    16    17   ar
     8    17    18   ar
     9     1    18    1
    10     1     2    1
    11     2     3    1
    12     3     4    2
    13     4     5    1
    14     5     6    2
    15     6     7    1
    16     7     8    1
    17     8     9    2
    18     9    10    1
    19    10    11    2
    20     4    12    1
    21    12    29    1
    22    29    30    1
    23    30    31    1
    24    31    32    1
    25    32    33    1
    26    33    34    1
    27    12    13    1
    28    18    19   ar
    29    25    26   ar
    30    26    27    1
    31    26    28   ar
    32    28    22   ar
    33    19    15   ar
    34    13     1    1
    35    11     3    1
    36    34    29    1
    37    11     6    1
    38    13    14    1
    39    19    20    1
@<TRIPOS>MOLECULE
*****
 34 39 0 0 0
SMALL
GASTEIGER

@<TRIPOS>ATOM
      1 C         142.0717  139.7948  161.0915 C.3     1  UNL1        0.1161
      2 C         141.0920  139.0032  161.9062 C.3     1  UNL1        0.0510
      3 C         140.7482  139.4411  163.2990 C.2     1  UNL1       -0.0044
      4 C         141.3841  140.6705  163.8771 C.2     1  UNL1        0.0689
      5 N         140.8539  140.8563  165.2679 N.2     1  UNL1       -0.2526
      6 C         139.8903  139.7416  165.5494 C.2     1  UNL1        0.0627
      7 C         139.0640  139.4101  166.7565 C.3     1  UNL1        0.0717
      8 C         138.1723  138.2040  166.7468 C.2     1  UNL1       -0.0198
      9 C         138.1070  137.3294  165.5299 C.2     1  UNL1       -0.0042
     10 C         138.9334  137.6609  164.3228 C.2     1  UNL1        0.0006
     11 C         139.8250  138.8670  164.3325 C.2     1  UNL1        0.0111
     12 C         142.3638  141.4621  163.0624 C.3     1  UNL1        0.0949
     13 N         142.7076  141.0242  161.6696 N.3     1  UNL1       -0.2887
     14 H         143.7159  140.8714  161.6493 H       1  UNL1        0.1239
     15 C         142.6127  138.0222  157.6811 C.ar    1  UNL1        0.0791
     16 C         143.2763  139.3436  157.4294 C.ar    1  UNL1        0.1172
     17 N         143.1545  140.1684  158.6762 N.ar    1  UNL1       -0.2282
     18 C         142.4155  139.3568  159.6985 C.ar    1  UNL1        0.1318
     19 N         142.0806  138.0303  159.0835 N.ar    1  UNL1       -0.3396
     20 H         141.5966  137.2943  159.5232 H       1  UNL1        0.1671
     21 F         142.1648  133.4979  153.7656 F       1  UNL1       -0.2041
     22 C         142.2768  134.6290  154.7445 C.ar    1  UNL1        0.1424
     23 C         143.6218  135.0374  155.2679 C.ar    1  UNL1        0.0298
     24 C         143.7337  136.1685  156.2468 C.ar    1  UNL1        0.0060
     25 C         142.5007  136.8911  156.7022 C.ar    1  UNL1        0.0447
     26 C         141.1556  136.4826  156.1787 C.ar    1  UNL1        0.1437
     27 F         139.9226  137.2052  156.6341 F       1  UNL1       -0.2040
     28 C         141.0437  135.3516  155.1999 C.ar    1  UNL1        0.0593
     29 C         142.9996  142.6915  163.6405 C.3     1  UNL1        0.0252
     30 C         143.9998  142.5669  164.7513 C.3     1  UNL1        0.0339
     31 C         144.6357  143.7964  165.3294 C.3     1  UNL1        0.1422
     32 O         144.2713  145.1504  164.7966 O.3     1  UNL1       -0.3538
     33 C         143.2711  145.2750  163.6857 C.3     1  UNL1        0.1422
     34 C         142.6353  144.0456  163.1077 C.3     1  UNL1        0.0339
@<TRIPOS>BOND
     1    21    22    1
     2    22    23   ar
     3    23    24   ar
     4    24    25   ar
     5    25    15    1
     6    15    16   ar
     7    16    17   ar
     8    17    18   ar
     9     1    18    1
    10     1     2    1
    11     2     3    1
    12     3     4    2
    13     4     5    1
    14     5     6    2
    15     6     7    1
    16     7     8    1
    17     8     9    2
    18     9    10    1
    19    10    11    2
    20     4    12    1
    21    12    29    1
    22    29    30    1
    23    30    31    1
    24    31    32    1
    25    32    33    1
    26    33    34    1
    27    12    13    1
    28    18    19   ar
    29    25    26   ar
    30    26    27    1
    31    26    28   ar
    32    28    22   ar
    33    19    15   ar
    34    13     1    1
    35    11     3    1
    36    34    29    1
    37    11     6    1
    38    13    14    1
    39    19    20    1
@<TRIPOS>MOLECULE
*****
 34 39 0 0 0
SMALL
GASTEIGER

@<TRIPOS>ATOM
      1 C         140.1698  143.3588  159.7585 C.3     1  UNL1        0.1161
      2 C         139.7484  144.5234  158.9121 C.3     1  UNL1        0.0510
      3 C         140.3914  144.7512  157.5762 C.2     1  UNL1       -0.0044
      4 C         141.4557  143.8144  157.0866 C.2     1  UNL1        0.0689
      5 N         141.9062  144.2895  155.7371 N.2     1  UNL1       -0.2526
      6 C         141.1204  145.5199  155.3926 C.2     1  UNL1        0.0627
      7 C         141.1365  146.4172  154.1908 C.3     1  UNL1        0.0717
      8 C         140.2162  147.6000  154.1256 C.2     1  UNL1       -0.0198
      9 C         139.2800  147.8853  155.2623 C.2     1  UNL1       -0.0042
     10 C         139.2640  146.9879  156.4641 C.2     1  UNL1        0.0006
     11 C         140.1842  145.8052  156.5293 C.2     1  UNL1        0.0111
     12 C         141.8770  142.6498  157.9330 C.3     1  UNL1        0.0949
     13 N         141.2341  142.4220  159.2689 N.3     1  UNL1       -0.2887
     14 H         141.9820  142.4379  159.9622 H       1  UNL1        0.1239
     15 C         139.1243  142.3642  163.3617 C.ar    1  UNL1        0.0791
     16 C         137.9505  143.1968  162.9387 C.ar    1  UNL1        0.1172
     17 N         138.1992  143.6707  161.5375 N.ar    1  UNL1       -0.2282
     18 C         139.5267  143.1310  161.0944 C.ar    1  UNL1        0.1318
     19 N         140.0985  142.3235  162.2218 N.ar    1  UNL1       -0.3396
     20 H         140.9616  141.8500  162.2148 H       1  UNL1        0.1671
     21 F         139.8034  139.6692  168.6792 F       1  UNL1       -0.2041
     22 C         139.6336  140.3430  167.3498 C.ar    1  UNL1        0.1424
     23 C         138.7616  139.7210  166.2997 C.ar    1  UNL1        0.0298
     24 C         138.5918  140.3947  164.9704 C.ar    1  UNL1        0.0060
     25 C         139.2941  141.6904  164.6911 C.ar    1  UNL1        0.0447
     26 C         140.1661  142.3124  165.7412 C.ar    1  UNL1        0.1437
     27 F         140.8684  143.6081  165.4619 F       1  UNL1       -0.2040
     28 C         140.3359  141.6386  167.0705 C.ar    1  UNL1        0.0593
     29 C         142.9413  141.7130  157.4434 C.3     1  UNL1        0.0252
     30 C         142.5773  140.3223  157.0155 C.3     1  UNL1        0.0339
     31 C         143.6417  139.3855  156.5259 C.3     1  UNL1        0.1422
     32 O         145.0700  139.8395  156.4642 O.3     1  UNL1       -0.3538
     33 C         145.4340  141.2304  156.8922 C.3     1  UNL1        0.1422
     34 C         144.3697  142.1671  157.3817 C.3     1  UNL1        0.0339
@<TRIPOS>BOND
     1    21    22    1
     2    22    23   ar
     3    23    24   ar
     4    24    25   ar
     5    25    15    1
     6    15    16   ar
     7    16    17   ar
     8    17    18   ar
     9     1    18    1
    10     1     2    1
    11     2     3    1
    12     3     4    2
    13     4     5    1
    14     5     6    2
    15     6     7    1
    16     7     8    1
    17     8     9    2
    18     9    10    1
    19    10    11    2
    20     4    12    1
    21    12    29    1
    22    29    30    1
    23    30    31    1
    24    31    32    1
    25    32    33    1
    26    33    34    1
    27    12    13    1
    28    18    19   ar
    29    25    26   ar
    30    26    27    1
    31    26    28   ar
    32    28    22   ar
    33    19    15   ar
    34    13     1    1
    35    11     3    1
    36    34    29    1
    37    11     6    1
    38    13    14    1
    39    19    20    1
@<TRIPOS>MOLECULE
*****
 34 39 0 0 0
SMALL
GASTEIGER

@<TRIPOS>ATOM
      1 C         139.7075  138.7224  157.9084 C.3     1  UNL1        0.1161
      2 C         140.4204  137.5976  157.2181 C.3     1  UNL1        0.0510
      3 C         140.1327  137.2998  155.7764 C.2     1  UNL1       -0.0044
      4 C         139.1321  138.1269  155.0250 C.2     1  UNL1        0.0689
      5 N         139.0564  137.6014  153.6221 N.2     1  UNL1       -0.2526
      6 C         140.0102  136.4495  153.5065 C.2     1  UNL1        0.0627
      7 C         140.3590  135.5462  152.3609 C.3     1  UNL1        0.0717
      8 C         141.3729  134.4566  152.5467 C.2     1  UNL1       -0.0198
      9 C         142.0382  134.2702  153.8782 C.2     1  UNL1       -0.0042
     10 C         141.6894  135.1735  155.0238 C.2     1  UNL1        0.0006
     11 C         140.6755  136.2631  154.8380 C.2     1  UNL1        0.0111
     12 C         138.4192  139.2518  155.7153 C.3     1  UNL1        0.0949
     13 N         138.7068  139.5495  157.1570 N.3     1  UNL1       -0.2887
     14 H         137.8217  139.4669  157.6570 H       1  UNL1        0.1239
     15 C         139.7891  139.1570  161.7646 C.ar    1  UNL1        0.0791
     16 C         141.0867  139.7995  161.3730 C.ar    1  UNL1        0.1172
     17 N         141.2141  139.7150  159.8808 N.ar    1  UNL1       -0.2282
     18 C         139.9952  139.0201  159.3502 C.ar    1  UNL1        0.1318
     19 N         139.1145  138.6753  160.5144 N.ar    1  UNL1       -0.3396
     20 H         138.2462  138.2138  160.4664 H       1  UNL1        0.1671
     21 F         137.6691  138.6094  167.3508 F       1  UNL1       -0.2041
     22 C         138.1991  138.7463  165.9542 C.ar    1  UNL1        0.1424
     23 C         138.7532  137.5484  165.2416 C.ar    1  UNL1        0.0298
     24 C         139.2832  137.6853  163.8450 C.ar    1  UNL1        0.0060
     25 C         139.2591  139.0201  163.1612 C.ar    1  UNL1        0.0447
     26 C         138.7050  140.2180  163.8738 C.ar    1  UNL1        0.1437
     27 F         138.6809  141.5528  163.1900 F       1  UNL1       -0.2040
     28 C         138.1750  140.0811  165.2704 C.ar    1  UNL1        0.0593
     29 C         137.4185  140.0789  154.9638 C.3     1  UNL1        0.0252
     30 C         137.7510  141.4893  154.5765 C.3     1  UNL1        0.0339
     31 C         136.7503  142.3164  153.8250 C.3     1  UNL1        0.1422
     32 O         135.4172  141.7330  153.4610 O.3     1  UNL1       -0.3538
     33 C         135.0847  140.3225  153.8484 C.3     1  UNL1        0.1422
     34 C         136.0854  139.4955  154.5998 C.3     1  UNL1        0.0339
@<TRIPOS>BOND
     1    21    22    1
     2    22    23   ar
     3    23    24   ar
     4    24    25   ar
     5    25    15    1
     6    15    16   ar
     7    16    17   ar
     8    17    18   ar
     9     1    18    1
    10     1     2    1
    11     2     3    1
    12     3     4    2
    13     4     5    1
    14     5     6    2
    15     6     7    1
    16     7     8    1
    17     8     9    2
    18     9    10    1
    19    10    11    2
    20     4    12    1
    21    12    29    1
    22    29    30    1
    23    30    31    1
    24    31    32    1
    25    32    33    1
    26    33    34    1
    27    12    13    1
    28    18    19   ar
    29    25    26   ar
    30    26    27    1
    31    26    28   ar
    32    28    22   ar
    33    19    15   ar
    34    13     1    1
    35    11     3    1
    36    34    29    1
    37    11     6    1
    38    13    14    1
    39    19    20    1
