@<TRIPOS>MOLECULE
*****
 32 35 0 0 0
SMALL
GASTEIGER

@<TRIPOS>ATOM
      1 C         140.1500  144.1602  164.6340 C.3     1  UNL1        0.0595
      2 C         139.0112  144.7994  165.3719 C.3     1  UNL1        0.0174
      3 C         140.8713  145.1613  160.3065 C.3     1  UNL1        0.0820
      4 C         139.8668  145.9433  161.0998 C.3     1  UNL1        0.0267
      5 C         139.6263  145.6096  162.5422 C.3     1  UNL1        0.0725
      6 N         140.3905  144.4939  163.1914 N.3     1  UNL1       -0.2739
      7 C         141.3950  143.7120  162.3981 C.3     1  UNL1        0.0725
      8 C         141.6355  144.0457  160.9556 C.3     1  UNL1        0.0267
      9 C         140.7601  146.1972  156.5674 C.ar    1  UNL1        0.1800
     10 N         142.2038  145.8198  156.7208 N.ar    1  UNL1       -0.0606
     11 O         142.4211  145.3858  158.1401 O.2     1  UNL1       -0.3374
     12 C         141.1118  145.4951  158.8639 C.ar    1  UNL1        0.2359
     13 N         140.0853  145.9965  157.8919 N.ar    1  UNL1       -0.1949
     14 C         139.0616  147.7634  155.3790 C.3     1  UNL1        0.0081
     15 C         140.1061  146.6890  155.3103 C.3     1  UNL1        0.0621
     16 C         140.4966  146.1065  153.9843 C.3     1  UNL1        0.0081
     17 C         141.0484  143.1873  165.3385 C.3     1  UNL1        0.0401
     18 C         140.4924  141.8958  165.8608 C.3     1  UNL1        0.0954
     19 C         140.2151  141.7367  167.3263 C.ar    1  UNL1       -0.0045
     20 C         139.6626  140.4438  167.8491 C.ar    1  UNL1       -0.0027
     21 C         139.3854  140.2847  169.3146 C.ar    1  UNL1       -0.0003
     22 C         139.6606  141.4185  170.2574 C.ar    1  UNL1       -0.0000
     23 C         140.2131  142.7113  169.7346 C.ar    1  UNL1       -0.0003
     24 C         140.4904  142.8704  168.2691 C.ar    1  UNL1       -0.0027
     25 N         140.2136  140.7633  164.9175 N.am    1  UNL1       -0.3022
     26 C         138.8568  140.6237  164.2934 C.2     1  UNL1        0.2222
     27 O         137.7787  141.6166  164.6125 O.2     1  UNL1       -0.2751
     28 H         140.9211  140.1116  164.7080 H       1  UNL1        0.1497
     29 C         138.5780  139.4912  163.3501 C.3     1  UNL1        0.0765
     30 C         137.9081  139.3640  162.0140 C.3     1  UNL1        0.0091
     31 C         138.1838  137.8897  162.0161 C.3     1  UNL1        0.0010
     32 C         138.8537  138.0168  163.3522 C.3     1  UNL1        0.0091
@<TRIPOS>BOND
     1    14    15    1
     2    15    16    1
     3    15     9    1
     4     9    10   ar
     5    10    11   ar
     6    11    12   ar
     7    12     3    1
     8     3     4    1
     9     4     5    1
    10     5     6    1
    11     6     1    1
    12     1     2    1
    13     1    17    1
    14    18    17    1
    15    18    25    1
    16    25    26   am
    17    26    27    2
    18    26    29    1
    19    29    30    1
    20    30    31    1
    21    31    32    1
    22    18    19    1
    23    19    20   ar
    24    20    21   ar
    25    21    22   ar
    26    22    23   ar
    27    23    24   ar
    28     6     7    1
    29     7     8    1
    30    12    13   ar
    31    13     9   ar
    32     8     3    1
    33    32    29    1
    34    24    19   ar
    35    25    28    1
@<TRIPOS>MOLECULE
*****
 32 35 0 0 0
SMALL
GASTEIGER

@<TRIPOS>ATOM
      1 C         138.9925  143.3160  164.3449 C.3     1  UNL1        0.0595
      2 C         137.8532  142.3445  164.4347 C.3     1  UNL1        0.0174
      3 C         140.3538  144.8228  160.3292 C.3     1  UNL1        0.0820
      4 C         140.0534  145.7939  161.4321 C.3     1  UNL1        0.0267
      5 C         139.5997  145.2916  162.7707 C.3     1  UNL1        0.0725
      6 N         139.4463  143.8182  163.0063 N.3     1  UNL1       -0.2739
      7 C         139.7467  142.8471  161.9033 C.3     1  UNL1        0.0725
      8 C         140.2004  143.3493  160.5648 C.3     1  UNL1        0.0267
      9 C         140.7918  146.1446  156.7061 C.ar    1  UNL1        0.1800
     10 N         142.2200  146.0511  157.1552 N.ar    1  UNL1       -0.0606
     11 O         142.2297  145.5446  158.5670 O.2     1  UNL1       -0.3374
     12 C         140.8076  145.3250  158.9905 C.ar    1  UNL1        0.2359
     13 N         139.9189  145.6958  157.8404 N.ar    1  UNL1       -0.1949
     14 C         139.1197  147.4995  155.2507 C.3     1  UNL1        0.0081
     15 C         140.3195  146.6058  155.3592 C.3     1  UNL1        0.0621
     16 C         141.0469  146.1734  154.1207 C.3     1  UNL1        0.0081
     17 C         139.6782  143.7852  165.5938 C.3     1  UNL1        0.0401
     18 C         140.6573  142.8899  166.2935 C.3     1  UNL1        0.0954
     19 C         140.2229  142.0903  167.4860 C.ar    1  UNL1       -0.0045
     20 C         139.6953  140.6980  167.3036 C.ar    1  UNL1       -0.0027
     21 C         139.2609  139.8984  168.4961 C.ar    1  UNL1       -0.0003
     22 C         139.3542  140.4911  169.8709 C.ar    1  UNL1       -0.0000
     23 C         139.8819  141.8833  170.0532 C.ar    1  UNL1       -0.0003
     24 C         140.3162  142.6829  168.8608 C.ar    1  UNL1       -0.0027
     25 N         142.0709  142.7941  165.8007 N.am    1  UNL1       -0.3022
     26 C         142.4496  141.7333  164.8102 C.2     1  UNL1        0.2222
     27 O         141.4148  140.7683  164.3123 O.2     1  UNL1       -0.2751
     28 H         142.7500  143.4275  166.1275 H       1  UNL1        0.1497
     29 C         143.8631  141.6376  164.3175 C.3     1  UNL1        0.0765
     30 C         144.9967  142.6059  164.1523 C.3     1  UNL1        0.0091
     31 C         145.8621  141.5022  163.6207 C.3     1  UNL1        0.0010
     32 C         144.7285  140.5338  163.7858 C.3     1  UNL1        0.0091
@<TRIPOS>BOND
     1    14    15    1
     2    15    16    1
     3    15     9    1
     4     9    10   ar
     5    10    11   ar
     6    11    12   ar
     7    12     3    1
     8     3     4    1
     9     4     5    1
    10     5     6    1
    11     6     1    1
    12     1     2    1
    13     1    17    1
    14    18    17    1
    15    18    25    1
    16    25    26   am
    17    26    27    2
    18    26    29    1
    19    29    30    1
    20    30    31    1
    21    31    32    1
    22    18    19    1
    23    19    20   ar
    24    20    21   ar
    25    21    22   ar
    26    22    23   ar
    27    23    24   ar
    28     6     7    1
    29     7     8    1
    30    12    13   ar
    31    13     9   ar
    32     8     3    1
    33    32    29    1
    34    24    19   ar
    35    25    28    1
@<TRIPOS>MOLECULE
*****
 32 35 0 0 0
SMALL
GASTEIGER

@<TRIPOS>ATOM
      1 C         138.5962  138.9818  166.0506 C.3     1  UNL1        0.0595
      2 C         137.7135  137.9764  166.7288 C.3     1  UNL1        0.0174
      3 C         138.6833  139.2320  161.5584 C.3     1  UNL1        0.0820
      4 C         138.4448  140.4681  162.3739 C.3     1  UNL1        0.0267
      5 C         138.4158  140.3847  163.8713 C.3     1  UNL1        0.0725
      6 N         138.6253  139.0652  164.5531 N.3     1  UNL1       -0.2739
      7 C         138.8637  137.8290  163.7376 C.3     1  UNL1        0.0725
      8 C         138.8927  137.9125  162.2403 C.3     1  UNL1        0.0267
      9 C         139.3846  139.0332  157.7460 C.ar    1  UNL1        0.1800
     10 N         138.1293  139.8542  157.7674 N.ar    1  UNL1       -0.0606
     11 O         137.7139  140.0285  159.1981 O.2     1  UNL1       -0.3374
     12 C         138.7123  139.3154  160.0609 C.ar    1  UNL1        0.2359
     13 N         139.7449  138.7002  159.1635 N.ar    1  UNL1       -0.1949
     14 C         140.6686  139.6577  155.5755 C.3     1  UNL1        0.0081
     15 C         140.1459  138.6182  156.5220 C.3     1  UNL1        0.0621
     16 C         140.3844  137.1635  156.2445 C.3     1  UNL1        0.0081
     17 C         139.4500  139.9038  166.8697 C.3     1  UNL1        0.0401
     18 C         140.9444  139.7868  166.8172 C.3     1  UNL1        0.0954
     19 C         141.7835  140.4053  167.8958 C.ar    1  UNL1       -0.0045
     20 C         142.0336  139.6586  169.1726 C.ar    1  UNL1       -0.0027
     21 C         142.8727  140.2772  170.2511 C.ar    1  UNL1       -0.0003
     22 C         143.4617  141.6425  170.0529 C.ar    1  UNL1       -0.0000
     23 C         143.2117  142.3891  168.7762 C.ar    1  UNL1       -0.0003
     24 C         142.3726  141.7705  167.6977 C.ar    1  UNL1       -0.0027
     25 N         141.5999  139.0512  165.6861 N.am    1  UNL1       -0.3022
     26 C         142.0448  139.7979  164.4637 C.2     1  UNL1        0.2222
     27 O         141.8344  141.2803  164.3723 O.2     1  UNL1       -0.2751
     28 H         141.7381  138.0783  165.7461 H       1  UNL1        0.1497
     29 C         142.7003  139.0623  163.3327 C.3     1  UNL1        0.0765
     30 C         142.3400  137.8754  162.4891 C.3     1  UNL1        0.0091
     31 C         143.6272  138.0220  161.7331 C.3     1  UNL1        0.0010
     32 C         143.9875  139.2088  162.5767 C.3     1  UNL1        0.0091
@<TRIPOS>BOND
     1    14    15    1
     2    15    16    1
     3    15     9    1
     4     9    10   ar
     5    10    11   ar
     6    11    12   ar
     7    12     3    1
     8     3     4    1
     9     4     5    1
    10     5     6    1
    11     6     1    1
    12     1     2    1
    13     1    17    1
    14    18    17    1
    15    18    25    1
    16    25    26   am
    17    26    27    2
    18    26    29    1
    19    29    30    1
    20    30    31    1
    21    31    32    1
    22    18    19    1
    23    19    20   ar
    24    20    21   ar
    25    21    22   ar
    26    22    23   ar
    27    23    24   ar
    28     6     7    1
    29     7     8    1
    30    12    13   ar
    31    13     9   ar
    32     8     3    1
    33    32    29    1
    34    24    19   ar
    35    25    28    1
@<TRIPOS>MOLECULE
*****
 32 35 0 0 0
SMALL
GASTEIGER

@<TRIPOS>ATOM
      1 C         138.9898  143.1660  164.4243 C.3     1  UNL1        0.0595
      2 C         137.7213  142.3694  164.5032 C.3     1  UNL1        0.0174
      3 C         140.4145  144.7411  160.4571 C.3     1  UNL1        0.0820
      4 C         140.7340  145.4870  161.7186 C.3     1  UNL1        0.0267
      5 C         140.2591  144.9619  163.0410 C.3     1  UNL1        0.0725
      6 N         139.4647  143.6910  163.1018 N.3     1  UNL1       -0.2739
      7 C         139.1451  142.9452  161.8403 C.3     1  UNL1        0.0725
      8 C         139.6200  143.4702  160.5179 C.3     1  UNL1        0.0267
      9 C         140.9155  146.0653  156.8430 C.ar    1  UNL1        0.1800
     10 N         142.3249  146.0829  157.3561 N.ar    1  UNL1       -0.0606
     11 O         142.3087  145.5890  158.7724 O.2     1  UNL1       -0.3374
     12 C         140.8894  145.2662  159.1346 C.ar    1  UNL1        0.2359
     13 N         140.0283  145.5606  157.9422 N.ar    1  UNL1       -0.1949
     14 C         139.4690  147.5839  155.3096 C.3     1  UNL1        0.0081
     15 C         140.4712  146.4798  155.4715 C.3     1  UNL1        0.0621
     16 C         141.0292  145.7900  154.2621 C.3     1  UNL1        0.0081
     17 C         139.7835  143.4376  165.6678 C.3     1  UNL1        0.0401
     18 C         140.6830  142.3771  166.2300 C.3     1  UNL1        0.0954
     19 C         141.3034  142.5600  167.5834 C.ar    1  UNL1       -0.0045
     20 C         142.7258  142.1455  167.8186 C.ar    1  UNL1       -0.0027
     21 C         143.3462  142.3284  169.1720 C.ar    1  UNL1       -0.0003
     22 C         142.5443  142.9258  170.2901 C.ar    1  UNL1       -0.0000
     23 C         141.1220  143.3402  170.0549 C.ar    1  UNL1       -0.0003
     24 C         140.5016  143.1573  168.7015 C.ar    1  UNL1       -0.0027
     25 N         140.9622  141.1336  165.4388 N.am    1  UNL1       -0.3022
     26 C         140.2631  139.8522  165.7841 C.2     1  UNL1        0.2222
     27 O         139.2848  139.8142  166.9206 O.2     1  UNL1       -0.2751
     28 H         141.6042  141.1585  164.6929 H       1  UNL1        0.1497
     29 C         140.5423  138.6088  164.9930 C.3     1  UNL1        0.0765
     30 C         141.7546  137.7625  164.7398 C.3     1  UNL1        0.0091
     31 C         140.9371  136.8504  163.8740 C.3     1  UNL1        0.0010
     32 C         139.7248  137.6967  164.1271 C.3     1  UNL1        0.0091
@<TRIPOS>BOND
     1    14    15    1
     2    15    16    1
     3    15     9    1
     4     9    10   ar
     5    10    11   ar
     6    11    12   ar
     7    12     3    1
     8     3     4    1
     9     4     5    1
    10     5     6    1
    11     6     1    1
    12     1     2    1
    13     1    17    1
    14    18    17    1
    15    18    25    1
    16    25    26   am
    17    26    27    2
    18    26    29    1
    19    29    30    1
    20    30    31    1
    21    31    32    1
    22    18    19    1
    23    19    20   ar
    24    20    21   ar
    25    21    22   ar
    26    22    23   ar
    27    23    24   ar
    28     6     7    1
    29     7     8    1
    30    12    13   ar
    31    13     9   ar
    32     8     3    1
    33    32    29    1
    34    24    19   ar
    35    25    28    1
@<TRIPOS>MOLECULE
*****
 32 35 0 0 0
SMALL
GASTEIGER

@<TRIPOS>ATOM
      1 C         139.4637  138.8660  164.8708 C.3     1  UNL1        0.0595
      2 C         138.8671  137.5522  165.2803 C.3     1  UNL1        0.0174
      3 C         141.8004  139.1790  161.0378 C.3     1  UNL1        0.0820
      4 C         140.7776  140.2215  161.3799 C.3     1  UNL1        0.0267
      5 C         139.9987  140.1171  162.6575 C.3     1  UNL1        0.0725
      6 N         140.2427  138.9703  163.5931 N.3     1  UNL1       -0.2739
      7 C         141.2655  137.9279  163.2510 C.3     1  UNL1        0.0725
      8 C         142.0444  138.0322  161.9734 C.3     1  UNL1        0.0267
      9 C         144.0145  140.1268  157.9939 C.ar    1  UNL1        0.1800
     10 N         143.5415  138.7606  157.5940 N.ar    1  UNL1       -0.0606
     11 O         142.6546  138.2393  158.6856 O.2     1  UNL1       -0.3374
     12 C         142.5794  139.2833  159.7601 C.ar    1  UNL1        0.2359
     13 N         143.4199  140.4498  159.3326 N.ar    1  UNL1       -0.1949
     14 C         145.2681  142.3835  157.7008 C.3     1  UNL1        0.0081
     15 C         144.9227  141.0142  157.1953 C.3     1  UNL1        0.0621
     16 C         145.4856  140.5322  155.8911 C.3     1  UNL1        0.0081
     17 C         139.2814  140.0757  165.7389 C.3     1  UNL1        0.0401
     18 C         140.4473  140.6371  166.4973 C.3     1  UNL1        0.0954
     19 C         140.2290  141.3018  167.8242 C.ar    1  UNL1       -0.0045
     20 C         140.6452  142.7288  168.0257 C.ar    1  UNL1       -0.0027
     21 C         140.4269  143.3935  169.3525 C.ar    1  UNL1       -0.0003
     22 C         139.7924  142.6311  170.4779 C.ar    1  UNL1       -0.0000
     23 C         139.3763  141.2042  170.2763 C.ar    1  UNL1       -0.0003
     24 C         139.5946  140.5395  168.9495 C.ar    1  UNL1       -0.0027
     25 N         141.8317  140.5340  165.9289 N.am    1  UNL1       -0.3022
     26 C         142.3361  141.5867  164.9871 C.2     1  UNL1        0.2222
     27 O         141.4563  142.7428  164.6135 O.2     1  UNL1       -0.2751
     28 H         142.4092  139.7752  166.1741 H       1  UNL1        0.1497
     29 C         143.7204  141.4835  164.4187 C.3     1  UNL1        0.0765
     30 C         144.9169  142.3868  164.3695 C.3     1  UNL1        0.0091
     31 C         145.6781  141.3376  163.6150 C.3     1  UNL1        0.0010
     32 C         144.4817  140.4342  163.6641 C.3     1  UNL1        0.0091
@<TRIPOS>BOND
     1    14    15    1
     2    15    16    1
     3    15     9    1
     4     9    10   ar
     5    10    11   ar
     6    11    12   ar
     7    12     3    1
     8     3     4    1
     9     4     5    1
    10     5     6    1
    11     6     1    1
    12     1     2    1
    13     1    17    1
    14    18    17    1
    15    18    25    1
    16    25    26   am
    17    26    27    2
    18    26    29    1
    19    29    30    1
    20    30    31    1
    21    31    32    1
    22    18    19    1
    23    19    20   ar
    24    20    21   ar
    25    21    22   ar
    26    22    23   ar
    27    23    24   ar
    28     6     7    1
    29     7     8    1
    30    12    13   ar
    31    13     9   ar
    32     8     3    1
    33    32    29    1
    34    24    19   ar
    35    25    28    1
@<TRIPOS>MOLECULE
*****
 32 35 0 0 0
SMALL
GASTEIGER

@<TRIPOS>ATOM
      1 C         138.3540  138.8721  166.3357 C.3     1  UNL1        0.0595
      2 C         137.6264  137.6988  166.9222 C.3     1  UNL1        0.0174
      3 C         138.5020  139.4253  161.8723 C.3     1  UNL1        0.0820
      4 C         138.7936  138.0815  162.4715 C.3     1  UNL1        0.0267
      5 C         138.7443  137.8971  163.9593 C.3     1  UNL1        0.0725
      6 N         138.4033  139.0565  164.8478 N.3     1  UNL1       -0.2739
      7 C         138.1117  140.4003  164.2486 C.3     1  UNL1        0.0725
      8 C         138.1611  140.5847  162.7609 C.3     1  UNL1        0.0267
      9 C         138.2253  140.5234  158.1597 C.ar    1  UNL1        0.1800
     10 N         139.0295  139.2638  158.0302 N.ar    1  UNL1       -0.0606
     11 O         139.2310  138.6991  159.4052 O.2     1  UNL1       -0.3374
     12 C         138.5514  139.6098  160.3845 C.ar    1  UNL1        0.2359
     13 N         137.9299  140.7372  159.6147 N.ar    1  UNL1       -0.1949
     14 C         136.6106  141.0348  156.1896 C.3     1  UNL1        0.0081
     15 C         137.7926  141.4130  157.0321 C.3     1  UNL1        0.0621
     16 C         138.5418  142.6808  156.7471 C.3     1  UNL1        0.0081
     17 C         139.0322  139.8609  167.2369 C.3     1  UNL1        0.0401
     18 C         140.5161  140.0611  167.1488 C.3     1  UNL1        0.0954
     19 C         141.2068  140.9835  168.1091 C.ar    1  UNL1       -0.0045
     20 C         140.5075  142.2169  168.5988 C.ar    1  UNL1       -0.0027
     21 C         141.1982  143.1393  169.5591 C.ar    1  UNL1       -0.0003
     22 C         142.5882  142.8282  170.0296 C.ar    1  UNL1       -0.0000
     23 C         143.2874  141.5949  169.5399 C.ar    1  UNL1       -0.0003
     24 C         142.5967  140.6725  168.5796 C.ar    1  UNL1       -0.0027
     25 N         141.3094  139.3389  166.1004 N.am    1  UNL1       -0.3022
     26 C         141.7993  140.0767  164.8898 C.2     1  UNL1        0.2222
     27 O         141.4960  141.5367  164.7275 O.2     1  UNL1       -0.2751
     28 H         141.5086  138.3806  166.2068 H       1  UNL1        0.1497
     29 C         142.5926  139.3545  163.8414 C.3     1  UNL1        0.0765
     30 C         144.0507  139.2331  163.5106 C.3     1  UNL1        0.0091
     31 C         143.7145  138.3331  162.3588 C.3     1  UNL1        0.0010
     32 C         142.2564  138.4545  162.6895 C.3     1  UNL1        0.0091
@<TRIPOS>BOND
     1    14    15    1
     2    15    16    1
     3    15     9    1
     4     9    10   ar
     5    10    11   ar
     6    11    12   ar
     7    12     3    1
     8     3     4    1
     9     4     5    1
    10     5     6    1
    11     6     1    1
    12     1     2    1
    13     1    17    1
    14    18    17    1
    15    18    25    1
    16    25    26   am
    17    26    27    2
    18    26    29    1
    19    29    30    1
    20    30    31    1
    21    31    32    1
    22    18    19    1
    23    19    20   ar
    24    20    21   ar
    25    21    22   ar
    26    22    23   ar
    27    23    24   ar
    28     6     7    1
    29     7     8    1
    30    12    13   ar
    31    13     9   ar
    32     8     3    1
    33    32    29    1
    34    24    19   ar
    35    25    28    1
@<TRIPOS>MOLECULE
*****
 32 35 0 0 0
SMALL
GASTEIGER

@<TRIPOS>ATOM
      1 C         139.3981  138.9573  164.6409 C.3     1  UNL1        0.0595
      2 C         138.9418  137.6767  165.2746 C.3     1  UNL1        0.0174
      3 C         141.5688  138.8689  160.7001 C.3     1  UNL1        0.0820
      4 C         141.7841  137.7715  161.6996 C.3     1  UNL1        0.0267
      5 C         141.0605  137.8010  163.0132 C.3     1  UNL1        0.0725
      6 N         140.1217  138.9279  163.3272 N.3     1  UNL1       -0.2739
      7 C         139.9064  140.0254  162.3276 C.3     1  UNL1        0.0725
      8 C         140.6300  139.9959  161.0141 C.3     1  UNL1        0.0267
      9 C         142.9847  138.2137  157.1459 C.ar    1  UNL1        0.1800
     10 N         143.8272  139.3748  157.5840 N.ar    1  UNL1       -0.0606
     11 O         143.3994  139.7616  158.9687 O.2     1  UNL1       -0.3374
     12 C         142.2924  138.8395  159.3864 C.ar    1  UNL1        0.2359
     13 N         142.0361  137.8829  158.2599 N.ar    1  UNL1       -0.1949
     14 C         144.1169  136.4502  155.6103 C.3     1  UNL1        0.0081
     15 C         143.0748  137.5074  155.8257 C.3     1  UNL1        0.0621
     16 C         142.1229  137.8583  154.7208 C.3     1  UNL1        0.0081
     17 C         139.1308  140.2675  165.3206 C.3     1  UNL1        0.0401
     18 C         140.2472  140.9987  166.0053 C.3     1  UNL1        0.0954
     19 C         140.1237  141.3697  167.4535 C.ar    1  UNL1       -0.0045
     20 C         140.5461  142.7323  167.9172 C.ar    1  UNL1       -0.0027
     21 C         140.4226  143.1034  169.3653 C.ar    1  UNL1       -0.0003
     22 C         139.8768  142.1118  170.3497 C.ar    1  UNL1       -0.0000
     23 C         139.4545  140.7493  169.8860 C.ar    1  UNL1       -0.0003
     24 C         139.5779  140.3782  168.4379 C.ar    1  UNL1       -0.0027
     25 N         141.4872  141.3589  165.2419 N.am    1  UNL1       -0.3022
     26 C         142.7410  140.5563  165.4260 C.2     1  UNL1        0.2222
     27 O         142.7548  139.3935  166.3735 O.2     1  UNL1       -0.2751
     28 H         141.4781  142.1220  164.6201 H       1  UNL1        0.1497
     29 C         143.9809  140.9165  164.6626 C.3     1  UNL1        0.0765
     30 C         144.7477  142.1829  164.4215 C.3     1  UNL1        0.0091
     31 C         145.7344  141.4259  163.5830 C.3     1  UNL1        0.0010
     32 C         144.9676  140.1594  163.8240 C.3     1  UNL1        0.0091
@<TRIPOS>BOND
     1    14    15    1
     2    15    16    1
     3    15     9    1
     4     9    10   ar
     5    10    11   ar
     6    11    12   ar
     7    12     3    1
     8     3     4    1
     9     4     5    1
    10     5     6    1
    11     6     1    1
    12     1     2    1
    13     1    17    1
    14    18    17    1
    15    18    25    1
    16    25    26   am
    17    26    27    2
    18    26    29    1
    19    29    30    1
    20    30    31    1
    21    31    32    1
    22    18    19    1
    23    19    20   ar
    24    20    21   ar
    25    21    22   ar
    26    22    23   ar
    27    23    24   ar
    28     6     7    1
    29     7     8    1
    30    12    13   ar
    31    13     9   ar
    32     8     3    1
    33    32    29    1
    34    24    19   ar
    35    25    28    1
@<TRIPOS>MOLECULE
*****
 32 35 0 0 0
SMALL
GASTEIGER

@<TRIPOS>ATOM
      1 C         143.6869  141.7964  164.8569 C.3     1  UNL1        0.0595
      2 C         144.3647  143.1241  165.0236 C.3     1  UNL1        0.0174
      3 C         143.4605  139.8806  160.7913 C.3     1  UNL1        0.0820
      4 C         144.0332  139.1179  161.9490 C.3     1  UNL1        0.0267
      5 C         144.1087  139.7565  163.3041 C.3     1  UNL1        0.0725
      6 N         143.6114  141.1578  163.5016 N.3     1  UNL1       -0.2739
      7 C         143.0386  141.9205  162.3440 C.3     1  UNL1        0.0725
      8 C         142.9632  141.2819  160.9889 C.3     1  UNL1        0.0267
      9 C         142.8247  137.7226  157.6284 C.ar    1  UNL1        0.1800
     10 N         143.7130  138.7962  157.0730 N.ar    1  UNL1       -0.0606
     11 O         144.0592  139.7353  158.1902 O.2     1  UNL1       -0.3374
     12 C         143.3850  139.2420  159.4361 C.ar    1  UNL1        0.2359
     13 N         142.6220  137.9982  159.0888 N.ar    1  UNL1       -0.1949
     14 C         142.9688  135.2644  156.7999 C.3     1  UNL1        0.0081
     15 C         142.2415  136.5750  156.8584 C.3     1  UNL1        0.0621
     16 C         140.9310  136.7379  156.1469 C.3     1  UNL1        0.0081
     17 C         143.0846  141.1072  166.0453 C.3     1  UNL1        0.0401
     18 C         141.5965  140.9480  166.1454 C.3     1  UNL1        0.0954
     19 C         140.9013  141.2005  167.4504 C.ar    1  UNL1       -0.0045
     20 C         141.0586  142.5231  168.1404 C.ar    1  UNL1       -0.0027
     21 C         140.3634  142.7755  169.4454 C.ar    1  UNL1       -0.0003
     22 C         139.5110  141.7053  170.0603 C.ar    1  UNL1       -0.0000
     23 C         139.3538  140.3828  169.3704 C.ar    1  UNL1       -0.0003
     24 C         140.0489  140.1304  168.0654 C.ar    1  UNL1       -0.0027
     25 N         140.8035  140.5364  164.9405 N.am    1  UNL1       -0.3022
     26 C         140.7794  139.0985  164.5139 C.2     1  UNL1        0.2222
     27 O         141.5483  138.0723  165.2921 O.2     1  UNL1       -0.2751
     28 H         140.2988  141.2099  164.4297 H       1  UNL1        0.1497
     29 C         139.9864  138.6869  163.3090 C.3     1  UNL1        0.0765
     30 C         138.5259  138.5413  162.9995 C.3     1  UNL1        0.0091
     31 C         138.8649  138.1048  161.6051 C.3     1  UNL1        0.0010
     32 C         140.3254  138.2505  161.9146 C.3     1  UNL1        0.0091
@<TRIPOS>BOND
     1    14    15    1
     2    15    16    1
     3    15     9    1
     4     9    10   ar
     5    10    11   ar
     6    11    12   ar
     7    12     3    1
     8     3     4    1
     9     4     5    1
    10     5     6    1
    11     6     1    1
    12     1     2    1
    13     1    17    1
    14    18    17    1
    15    18    25    1
    16    25    26   am
    17    26    27    2
    18    26    29    1
    19    29    30    1
    20    30    31    1
    21    31    32    1
    22    18    19    1
    23    19    20   ar
    24    20    21   ar
    25    21    22   ar
    26    22    23   ar
    27    23    24   ar
    28     6     7    1
    29     7     8    1
    30    12    13   ar
    31    13     9   ar
    32     8     3    1
    33    32    29    1
    34    24    19   ar
    35    25    28    1
@<TRIPOS>MOLECULE
*****
 32 35 0 0 0
SMALL
GASTEIGER

@<TRIPOS>ATOM
      1 C         138.5415  143.7220  164.2780 C.3     1  UNL1        0.0595
      2 C         138.3887  144.7348  165.3738 C.3     1  UNL1        0.0174
      3 C         140.1989  144.9628  160.2826 C.3     1  UNL1        0.0820
      4 C         140.3773  145.8519  161.4774 C.3     1  UNL1        0.0267
      5 C         139.8249  145.4383  162.8092 C.3     1  UNL1        0.0725
      6 N         139.0940  144.1356  162.9462 N.3     1  UNL1       -0.2739
      7 C         138.9156  143.2465  161.7514 C.3     1  UNL1        0.0725
      8 C         139.4681  143.6601  160.4196 C.3     1  UNL1        0.0267
      9 C         140.9043  146.0886  156.6356 C.ar    1  UNL1        0.1800
     10 N         142.2989  145.9370  157.1670 N.ar    1  UNL1       -0.0606
     11 O         142.2043  145.4968  158.5978 O.2     1  UNL1       -0.3374
     12 C         140.7514  145.3764  158.9507 C.ar    1  UNL1        0.2359
     13 N         139.9480  145.7421  157.7380 N.ar    1  UNL1       -0.1949
     14 C         139.4281  147.5062  155.0352 C.3     1  UNL1        0.0081
     15 C         140.5316  146.5123  155.2458 C.3     1  UNL1        0.0621
     16 C         141.2624  145.9421  154.0665 C.3     1  UNL1        0.0081
     17 C         138.1419  142.2956  164.5140 C.3     1  UNL1        0.0401
     18 C         139.1942  141.2393  164.6786 C.3     1  UNL1        0.0954
     19 C         138.8212  139.8845  165.2032 C.ar    1  UNL1       -0.0045
     20 C         138.0177  139.7636  166.4642 C.ar    1  UNL1       -0.0027
     21 C         137.6448  138.4087  166.9888 C.ar    1  UNL1       -0.0003
     22 C         138.0753  137.1747  166.2525 C.ar    1  UNL1       -0.0000
     23 C         138.8788  137.2957  164.9917 C.ar    1  UNL1       -0.0003
     24 C         139.2517  138.6505  164.4670 C.ar    1  UNL1       -0.0027
     25 N         140.6194  141.5379  164.3185 N.am    1  UNL1       -0.3022
     26 C         141.5848  141.9769  165.3793 C.2     1  UNL1        0.2222
     27 O         141.1250  142.1174  166.8001 O.2     1  UNL1       -0.2751
     28 H         140.9212  141.4458  163.3859 H       1  UNL1        0.1497
     29 C         143.0099  142.2755  165.0192 C.3     1  UNL1        0.0765
     30 C         143.8186  143.5258  164.8377 C.3     1  UNL1        0.0091
     31 C         145.0255  142.6978  164.5099 C.3     1  UNL1        0.0010
     32 C         144.2169  141.4474  164.6913 C.3     1  UNL1        0.0091
@<TRIPOS>BOND
     1    14    15    1
     2    15    16    1
     3    15     9    1
     4     9    10   ar
     5    10    11   ar
     6    11    12   ar
     7    12     3    1
     8     3     4    1
     9     4     5    1
    10     5     6    1
    11     6     1    1
    12     1     2    1
    13     1    17    1
    14    18    17    1
    15    18    25    1
    16    25    26   am
    17    26    27    2
    18    26    29    1
    19    29    30    1
    20    30    31    1
    21    31    32    1
    22    18    19    1
    23    19    20   ar
    24    20    21   ar
    25    21    22   ar
    26    22    23   ar
    27    23    24   ar
    28     6     7    1
    29     7     8    1
    30    12    13   ar
    31    13     9   ar
    32     8     3    1
    33    32    29    1
    34    24    19   ar
    35    25    28    1
