@<TRIPOS>MOLECULE
*****
 44 47 0 0 0
SMALL
GASTEIGER

@<TRIPOS>ATOM
      1 C         142.0268  141.3259  162.6690 C.3     1  UNL1        0.0779
      2 C         142.3209  141.5717  164.1193 C.ar    1  UNL1        0.0373
      3 C         141.4740  140.9267  165.1761 C.ar    1  UNL1        0.0023
      4 C         141.7681  141.1724  166.6262 C.ar    1  UNL1        0.0183
      5 C         140.9212  140.5274  167.6830 C.ar    1  UNL1        0.0118
      6 C         141.2153  140.7732  169.1333 C.ar    1  UNL1        0.0685
      7 C         142.3562  141.6640  169.5267 C.ar    1  UNL1        0.0118
      8 C         143.2031  142.3090  168.4699 C.ar    1  UNL1        0.0199
      9 C         142.9091  142.0633  167.0197 C.ar    1  UNL1        0.0844
     10 N         143.7559  142.7083  165.9629 N.ar    1  UNL1       -0.2119
     11 C         143.4618  142.4625  164.5127 C.ar    1  UNL1        0.2211
     12 C         140.3685  140.1282  170.1901 C.1     1  UNL1        0.1004
     13 N         139.5216  139.4832  171.2468 N.1     1  UNL1       -0.1908
     14 O         144.3087  143.1075  163.4559 O.3     1  UNL1       -0.4563
     15 C         144.0099  144.5068  163.0060 C.3     1  UNL1        0.2542
     16 C         141.2485  142.3365  161.8798 C.ar    1  UNL1       -0.0083
     17 C         139.9956  142.9311  162.4513 C.ar    1  UNL1        0.0539
     18 C         139.2173  143.9417  161.6622 C.ar    1  UNL1        0.2258
     19 N         139.6919  144.3578  160.3014 N.ar    1  UNL1       -0.1967
     20 C         140.9448  143.7632  159.7298 C.ar    1  UNL1        0.1346
     21 C         141.7231  142.7526  160.5191 C.ar    1  UNL1        0.0307
     22 N         141.4195  144.1793  158.3691 N.pl3   1  UNL1       -0.2897
     23 C         141.7774  145.6118  158.1053 C.3     1  UNL1        0.1136
     24 C         141.5362  143.1627  157.2723 C.3     1  UNL1        0.1136
     25 O         137.9643  144.5363  162.2337 O.3     1  UNL1       -0.4561
     26 C         137.6149  144.3071  163.6743 C.3     1  UNL1        0.2542
     27 C         142.5110  140.0695  162.0080 C.3     1  UNL1        0.1161
     28 O         143.9066  140.6191  161.9857 O.3     1  UNL1       -0.3820
     29 H         144.5026  139.9715  161.5779 H       1  UNL1        0.2107
     30 C         139.2205  138.2409  163.2644 C.ar    1  UNL1        0.2272
     31 C         140.6160  138.7905  163.2421 C.ar    1  UNL1        0.0559
     32 C         141.1155  139.5199  162.0304 C.ar    1  UNL1        0.0117
     33 C         140.2195  139.6998  160.8409 C.ar    1  UNL1        0.0559
     34 C         138.8240  139.1502  160.8632 C.ar    1  UNL1        0.2272
     35 N         138.3245  138.4207  162.0750 N.ar    1  UNL1       -0.1767
     36 C         138.4583  138.2619  165.7481 C.3     1  UNL1        0.2542
     37 O         138.7210  137.5114  164.4762 O.3     1  UNL1       -0.4561
     38 O         137.9280  139.3301  159.6737 O.3     1  UNL1       -0.4561
     39 C         138.0139  140.5825  158.8527 C.3     1  UNL1        0.2542
     40 C         142.9953  138.8130  161.3471 C.3     1  UNL1        0.0491
     41 C         144.0222  138.8873  160.2562 C.3     1  UNL1        0.0750
     42 N         143.6402  139.4029  158.9004 N.3     1  UNL1       -0.2702
     43 C         142.7291  138.5984  158.0214 C.3     1  UNL1        0.0897
     44 C         144.1693  140.7230  158.4235 C.3     1  UNL1        0.0897
@<TRIPOS>BOND
     1    36    37    1
     2    37    30    1
     3    30    31   ar
     4    31    32   ar
     5    32    27    1
     6    27    28    1
     7    27    40    1
     8    40    41    1
     9    41    42    1
    10    42    43    1
    11    42    44    1
    12    27     1    1
    13     1    16    1
    14    16    17   ar
    15    17    18   ar
    16    18    25    1
    17    25    26    1
    18    18    19   ar
    19    19    20   ar
    20    20    22    1
    21    22    23    1
    22    22    24    1
    23    20    21   ar
    24     1     2    1
    25     2     3   ar
    26     3     4   ar
    27     4     5   ar
    28     5     6   ar
    29     6    12    1
    30    12    13    3
    31     6     7   ar
    32     7     8   ar
    33     8     9   ar
    34     9    10   ar
    35    10    11   ar
    36    11    14    1
    37    14    15    1
    38    32    33   ar
    39    33    34   ar
    40    34    38    1
    41    38    39    1
    42    34    35   ar
    43    35    30   ar
    44    21    16   ar
    45    11     2   ar
    46     9     4   ar
    47    28    29    1
@<TRIPOS>MOLECULE
*****
 44 47 0 0 0
SMALL
GASTEIGER

@<TRIPOS>ATOM
      1 C         142.0846  141.6257  162.6152 C.3     1  UNL1        0.0779
      2 C         142.3805  141.7935  164.0762 C.ar    1  UNL1        0.0373
      3 C         141.5079  141.1286  165.0992 C.ar    1  UNL1        0.0023
      4 C         141.8037  141.2963  166.5602 C.ar    1  UNL1        0.0183
      5 C         140.9311  140.6315  167.5832 C.ar    1  UNL1        0.0118
      6 C         141.2270  140.7992  169.0442 C.ar    1  UNL1        0.0685
      7 C         142.3953  141.6318  169.4821 C.ar    1  UNL1        0.0118
      8 C         143.2678  142.2967  168.4590 C.ar    1  UNL1        0.0199
      9 C         142.9720  142.1290  166.9981 C.ar    1  UNL1        0.0844
     10 N         143.8446  142.7938  165.9751 N.ar    1  UNL1       -0.2119
     11 C         143.5488  142.6261  164.5141 C.ar    1  UNL1        0.2211
     12 C         140.3544  140.1344  170.0672 C.1     1  UNL1        0.1004
     13 N         139.4819  139.4695  171.0903 N.1     1  UNL1       -0.1908
     14 O         144.4213  143.2909  163.4910 O.3     1  UNL1       -0.4563
     15 C         144.0926  144.6728  163.0091 C.3     1  UNL1        0.2542
     16 C         141.2835  142.6646  161.8881 C.ar    1  UNL1       -0.0083
     17 C         140.0179  143.1953  162.4935 C.ar    1  UNL1        0.0539
     18 C         139.2167  144.2342  161.7664 C.ar    1  UNL1        0.2258
     19 N         139.6812  144.7425  160.4337 N.ar    1  UNL1       -0.1967
     20 C         140.9469  144.2119  159.8283 C.ar    1  UNL1        0.1346
     21 C         141.7480  143.1729  160.5555 C.ar    1  UNL1        0.0307
     22 N         141.4114  144.7202  158.4957 N.pl3   1  UNL1       -0.2897
     23 C         142.6840  144.1994  157.8965 C.3     1  UNL1        0.1136
     24 C         140.6032  145.7492  157.7623 C.3     1  UNL1        0.1136
     25 O         137.9511  144.7648  162.3718 O.3     1  UNL1       -0.4561
     26 C         137.4640  144.2257  163.6842 C.3     1  UNL1        0.2542
     27 C         142.5900  140.4190  161.8814 C.3     1  UNL1        0.1161
     28 O         143.9705  141.0054  161.8678 O.3     1  UNL1       -0.3820
     29 H         144.5762  140.3961  161.4175 H       1  UNL1        0.2107
     30 C         138.9306  139.4148  160.7194 C.ar    1  UNL1        0.2272
     31 C         140.3111  140.0013  160.7058 C.ar    1  UNL1        0.0559
     32 C         141.2094  139.8325  161.8951 C.ar    1  UNL1        0.0117
     33 C         140.7272  139.0773  163.0980 C.ar    1  UNL1        0.0559
     34 C         139.3467  138.4909  163.1117 C.ar    1  UNL1        0.2272
     35 N         138.4484  138.6596  161.9224 N.ar    1  UNL1       -0.1767
     36 C         138.4508  140.4686  158.3936 C.3     1  UNL1        0.2542
     37 O         138.0322  139.5836  159.5301 O.3     1  UNL1       -0.4561
     38 O         138.8645  137.7356  164.3147 O.3     1  UNL1       -0.4561
     39 C         138.5542  138.4690  165.5859 C.3     1  UNL1        0.2542
     40 C         143.0953  139.2122  161.1476 C.3     1  UNL1        0.0491
     41 C         143.9351  139.3805  159.9162 C.3     1  UNL1        0.0750
     42 N         143.3728  139.0281  158.5710 N.3     1  UNL1       -0.2702
     43 C         142.5447  137.7884  158.4056 C.3     1  UNL1        0.0897
     44 C         143.6385  139.9155  157.3911 C.3     1  UNL1        0.0897
@<TRIPOS>BOND
     1    36    37    1
     2    37    30    1
     3    30    31   ar
     4    31    32   ar
     5    32    27    1
     6    27    28    1
     7    27    40    1
     8    40    41    1
     9    41    42    1
    10    42    43    1
    11    42    44    1
    12    27     1    1
    13     1    16    1
    14    16    17   ar
    15    17    18   ar
    16    18    25    1
    17    25    26    1
    18    18    19   ar
    19    19    20   ar
    20    20    22    1
    21    22    23    1
    22    22    24    1
    23    20    21   ar
    24     1     2    1
    25     2     3   ar
    26     3     4   ar
    27     4     5   ar
    28     5     6   ar
    29     6    12    1
    30    12    13    3
    31     6     7   ar
    32     7     8   ar
    33     8     9   ar
    34     9    10   ar
    35    10    11   ar
    36    11    14    1
    37    14    15    1
    38    32    33   ar
    39    33    34   ar
    40    34    38    1
    41    38    39    1
    42    34    35   ar
    43    35    30   ar
    44    21    16   ar
    45    11     2   ar
    46     9     4   ar
    47    28    29    1
@<TRIPOS>MOLECULE
*****
 44 47 0 0 0
SMALL
GASTEIGER

@<TRIPOS>ATOM
      1 C         142.3126  140.9340  163.6725 C.3     1  UNL1        0.0779
      2 C         142.1432  141.1575  165.1461 C.ar    1  UNL1        0.0373
      3 C         140.9506  140.5913  165.8583 C.ar    1  UNL1        0.0023
      4 C         140.7812  140.8147  167.3318 C.ar    1  UNL1        0.0183
      5 C         139.5886  140.2486  168.0440 C.ar    1  UNL1        0.0118
      6 C         139.4192  140.4721  169.5176 C.ar    1  UNL1        0.0685
      7 C         140.4423  141.2617  170.2790 C.ar    1  UNL1        0.0118
      8 C         141.6349  141.8278  169.5668 C.ar    1  UNL1        0.0199
      9 C         141.8044  141.6044  168.0933 C.ar    1  UNL1        0.0844
     10 N         142.9970  142.1705  167.3811 N.ar    1  UNL1       -0.2119
     11 C         143.1664  141.9471  165.9075 C.ar    1  UNL1        0.2211
     12 C         138.2266  139.9059  170.2298 C.1     1  UNL1        0.1004
     13 N         137.0340  139.3398  170.9420 N.1     1  UNL1       -0.1908
     14 O         144.3589  142.5132  165.1953 O.3     1  UNL1       -0.4563
     15 C         144.8000  143.9199  165.4723 C.3     1  UNL1        0.2542
     16 C         142.0085  142.0403  162.7063 C.ar    1  UNL1       -0.0083
     17 C         142.8621  142.2269  161.4870 C.ar    1  UNL1        0.0539
     18 C         142.5580  143.3332  160.5209 C.ar    1  UNL1        0.2258
     19 N         141.4003  144.2529  160.7739 N.ar    1  UNL1       -0.1967
     20 C         140.5467  144.0663  161.9932 C.ar    1  UNL1        0.1346
     21 C         140.8509  142.9599  162.9594 C.ar    1  UNL1        0.0307
     22 N         139.3891  144.9859  162.2463 N.pl3   1  UNL1       -0.2897
     23 C         139.4487  146.4115  161.7834 C.3     1  UNL1        0.1136
     24 C         138.1719  144.4800  162.9622 C.3     1  UNL1        0.1136
     25 O         143.4115  143.5199  159.3016 O.3     1  UNL1       -0.4561
     26 C         142.7881  143.9585  158.0096 C.3     1  UNL1        0.2542
     27 C         142.7862  139.6042  163.1652 C.3     1  UNL1        0.1161
     28 O         144.2093  140.0379  163.3565 O.3     1  UNL1       -0.3820
     29 H         144.8047  139.3206  163.0884 H       1  UNL1        0.2107
     30 C         139.2442  137.9524  163.8554 C.ar    1  UNL1        0.2272
     31 C         140.6674  138.3861  164.0467 C.ar    1  UNL1        0.0559
     32 C         141.3630  139.1704  162.9739 C.ar    1  UNL1        0.0117
     33 C         140.6356  139.5209  161.7098 C.ar    1  UNL1        0.0559
     34 C         139.2125  139.0872  161.5185 C.ar    1  UNL1        0.2272
     35 N         138.5168  138.3029  162.5913 N.ar    1  UNL1       -0.1767
     36 C         138.1140  137.8484  166.1925 C.3     1  UNL1        0.2542
     37 O         138.5486  137.1681  164.9282 O.3     1  UNL1       -0.4561
     38 O         138.4851  139.4377  160.2543 O.3     1  UNL1       -0.4561
     39 C         138.1422  140.8677  159.9582 C.3     1  UNL1        0.2542
     40 C         143.2597  138.2743  162.6579 C.3     1  UNL1        0.0491
     41 C         144.1622  138.2061  161.4617 C.3     1  UNL1        0.0750
     42 N         143.6142  138.4780  160.0921 N.3     1  UNL1       -0.2702
     43 C         142.8000  137.4326  159.3890 C.3     1  UNL1        0.0897
     44 C         143.8802  139.7953  159.4257 C.3     1  UNL1        0.0897
@<TRIPOS>BOND
     1    36    37    1
     2    37    30    1
     3    30    31   ar
     4    31    32   ar
     5    32    27    1
     6    27    28    1
     7    27    40    1
     8    40    41    1
     9    41    42    1
    10    42    43    1
    11    42    44    1
    12    27     1    1
    13     1    16    1
    14    16    17   ar
    15    17    18   ar
    16    18    25    1
    17    25    26    1
    18    18    19   ar
    19    19    20   ar
    20    20    22    1
    21    22    23    1
    22    22    24    1
    23    20    21   ar
    24     1     2    1
    25     2     3   ar
    26     3     4   ar
    27     4     5   ar
    28     5     6   ar
    29     6    12    1
    30    12    13    3
    31     6     7   ar
    32     7     8   ar
    33     8     9   ar
    34     9    10   ar
    35    10    11   ar
    36    11    14    1
    37    14    15    1
    38    32    33   ar
    39    33    34   ar
    40    34    38    1
    41    38    39    1
    42    34    35   ar
    43    35    30   ar
    44    21    16   ar
    45    11     2   ar
    46     9     4   ar
    47    28    29    1
@<TRIPOS>MOLECULE
*****
 44 47 0 0 0
SMALL
GASTEIGER

@<TRIPOS>ATOM
      1 C         140.8336  140.0648  162.0465 C.3     1  UNL1        0.0779
      2 C         140.2572  139.8284  163.4111 C.ar    1  UNL1        0.0373
      3 C         140.7172  140.6575  164.5734 C.ar    1  UNL1        0.0023
      4 C         140.1410  140.4212  165.9380 C.ar    1  UNL1        0.0183
      5 C         140.6010  141.2504  167.1003 C.ar    1  UNL1        0.0118
      6 C         140.0246  141.0140  168.4649 C.ar    1  UNL1        0.0685
      7 C         138.9884  139.9485  168.6671 C.ar    1  UNL1        0.0118
      8 C         138.5284  139.1194  167.5048 C.ar    1  UNL1        0.0199
      9 C         139.1047  139.3557  166.1403 C.ar    1  UNL1        0.0844
     10 N         138.6447  138.5266  164.9780 N.ar    1  UNL1       -0.2119
     11 C         139.2210  138.7629  163.6133 C.ar    1  UNL1        0.2211
     12 C         140.4846  141.8431  169.6272 C.1     1  UNL1        0.1004
     13 N         140.9446  142.6723  170.7895 N.1     1  UNL1       -0.1908
     14 O         138.7610  137.9338  162.4510 O.3     1  UNL1       -0.4563
     15 C         137.6012  138.3903  161.6165 C.3     1  UNL1        0.2542
     16 C         140.3974  141.2546  161.2440 C.ar    1  UNL1       -0.0083
     17 C         139.6922  142.3951  161.9162 C.ar    1  UNL1        0.0539
     18 C         139.2561  143.5849  161.1137 C.ar    1  UNL1        0.2258
     19 N         139.5251  143.6342  159.6388 N.ar    1  UNL1       -0.1967
     20 C         140.2303  142.4937  158.9665 C.ar    1  UNL1        0.1346
     21 C         140.6665  141.3039  159.7691 C.ar    1  UNL1        0.0307
     22 N         140.4994  142.5430  157.4917 N.pl3   1  UNL1       -0.2897
     23 C         140.8100  141.2806  156.7434 C.3     1  UNL1        0.1136
     24 C         140.4578  143.8546  156.7651 C.3     1  UNL1        0.1136
     25 O         138.5509  144.7254  161.7860 O.3     1  UNL1       -0.4561
     26 C         138.0369  144.5685  163.1865 C.3     1  UNL1        0.2542
     27 C         141.8460  139.1113  161.4845 C.3     1  UNL1        0.1161
     28 O         140.8079  138.5573  160.5542 O.3     1  UNL1       -0.3820
     29 H         141.2014  137.8566  160.0110 H       1  UNL1        0.2107
     30 C         144.3995  139.4016  164.5086 C.ar    1  UNL1        0.2272
     31 C         143.3614  138.8477  163.5783 C.ar    1  UNL1        0.0559
     32 C         142.8841  139.6653  162.4148 C.ar    1  UNL1        0.0117
     33 C         143.4448  141.0368  162.1817 C.ar    1  UNL1        0.0559
     34 C         144.4829  141.5908  163.1121 C.ar    1  UNL1        0.2272
     35 N         144.9603  140.7732  164.2755 N.ar    1  UNL1       -0.1767
     36 C         143.8840  137.9278  166.5852 C.3     1  UNL1        0.2542
     37 O         144.8768  138.5840  165.6721 O.3     1  UNL1       -0.4561
     38 O         145.0437  142.9624  162.8789 O.3     1  UNL1       -0.4561
     39 C         144.1234  144.1069  162.5736 C.3     1  UNL1        0.2542
     40 C         142.8585  138.1578  160.9225 C.3     1  UNL1        0.0491
     41 C         142.7516  137.7049  159.4965 C.3     1  UNL1        0.0750
     42 N         143.1506  138.6289  158.3843 N.3     1  UNL1       -0.2702
     43 C         143.8235  139.9324  158.6971 C.3     1  UNL1        0.0897
     44 C         142.8769  138.2491  156.9591 C.3     1  UNL1        0.0897
@<TRIPOS>BOND
     1    36    37    1
     2    37    30    1
     3    30    31   ar
     4    31    32   ar
     5    32    27    1
     6    27    28    1
     7    27    40    1
     8    40    41    1
     9    41    42    1
    10    42    43    1
    11    42    44    1
    12    27     1    1
    13     1    16    1
    14    16    17   ar
    15    17    18   ar
    16    18    25    1
    17    25    26    1
    18    18    19   ar
    19    19    20   ar
    20    20    22    1
    21    22    23    1
    22    22    24    1
    23    20    21   ar
    24     1     2    1
    25     2     3   ar
    26     3     4   ar
    27     4     5   ar
    28     5     6   ar
    29     6    12    1
    30    12    13    3
    31     6     7   ar
    32     7     8   ar
    33     8     9   ar
    34     9    10   ar
    35    10    11   ar
    36    11    14    1
    37    14    15    1
    38    32    33   ar
    39    33    34   ar
    40    34    38    1
    41    38    39    1
    42    34    35   ar
    43    35    30   ar
    44    21    16   ar
    45    11     2   ar
    46     9     4   ar
    47    28    29    1
@<TRIPOS>MOLECULE
*****
 44 47 0 0 0
SMALL
GASTEIGER

@<TRIPOS>ATOM
      1 C         142.0158  142.3816  162.3617 C.3     1  UNL1        0.0779
      2 C         142.2592  142.3148  163.8404 C.ar    1  UNL1        0.0373
      3 C         141.1753  141.8312  164.7577 C.ar    1  UNL1        0.0023
      4 C         141.4186  141.7643  166.2363 C.ar    1  UNL1        0.0183
      5 C         140.3348  141.2807  167.1536 C.ar    1  UNL1        0.0118
      6 C         140.5781  141.2139  168.6323 C.ar    1  UNL1        0.0685
      7 C         141.9052  141.6306  169.1936 C.ar    1  UNL1        0.0118
      8 C         142.9890  142.1142  168.2763 C.ar    1  UNL1        0.0199
      9 C         142.7457  142.1811  166.7977 C.ar    1  UNL1        0.0844
     10 N         143.8296  142.6646  165.8804 N.ar    1  UNL1       -0.2119
     11 C         143.5863  142.7315  164.4017 C.ar    1  UNL1        0.2211
     12 C         139.4943  140.7303  169.5496 C.1     1  UNL1        0.1004
     13 N         138.4104  140.2467  170.4669 N.1     1  UNL1       -0.1908
     14 O         144.6701  143.2151  163.4844 O.3     1  UNL1       -0.4563
     15 C         145.5838  142.2297  162.8181 C.3     1  UNL1        0.2542
     16 C         142.2442  141.1693  161.5085 C.ar    1  UNL1       -0.0083
     17 C         141.8704  139.8101  162.0212 C.ar    1  UNL1        0.0539
     18 C         142.0988  138.5978  161.1680 C.ar    1  UNL1        0.2258
     19 N         142.7009  138.7446  159.8020 N.ar    1  UNL1       -0.1967
     20 C         143.0746  140.1038  159.2892 C.ar    1  UNL1        0.1346
     21 C         142.8463  141.3162  160.1425 C.ar    1  UNL1        0.0307
     22 N         143.6767  140.2507  157.9233 N.pl3   1  UNL1       -0.2897
     23 C         144.6244  141.3780  157.6387 C.3     1  UNL1        0.1136
     24 C         143.3312  139.2702  156.8419 C.3     1  UNL1        0.1136
     25 O         141.7251  137.2386  161.6807 O.3     1  UNL1       -0.4561
     26 C         141.0846  137.0958  163.0297 C.3     1  UNL1        0.2542
     27 C         141.5441  143.6609  161.7364 C.3     1  UNL1        0.1161
     28 O         142.9501  143.9751  161.3187 O.3     1  UNL1       -0.3820
     29 H         142.9656  144.8228  160.8474 H       1  UNL1        0.2107
     30 C         137.9684  141.9450  161.8760 C.ar    1  UNL1        0.2272
     31 C         139.3744  142.2592  161.4583 C.ar    1  UNL1        0.0559
     32 C         140.1382  143.3467  162.1540 C.ar    1  UNL1        0.0117
     33 C         139.4960  144.1198  163.2674 C.ar    1  UNL1        0.0559
     34 C         138.0900  143.8056  163.6851 C.ar    1  UNL1        0.2272
     35 N         137.3262  142.7182  162.9894 N.ar    1  UNL1       -0.1767
     36 C         137.9091  139.9377  160.2275 C.3     1  UNL1        0.2542
     37 O         137.2046  140.8575  161.1802 O.3     1  UNL1       -0.4561
     38 O         137.4478  144.5789  164.7986 O.3     1  UNL1       -0.4561
     39 C         138.2876  145.1203  165.9173 C.3     1  UNL1        0.2542
     40 C         141.0725  144.9401  161.1110 C.3     1  UNL1        0.0491
     41 C         140.4347  144.9207  159.7534 C.3     1  UNL1        0.0750
     42 N         141.0887  144.1750  158.6282 N.3     1  UNL1       -0.2702
     43 C         142.3968  144.6536  158.0715 C.3     1  UNL1        0.0897
     44 C         140.4345  142.9507  158.0596 C.3     1  UNL1        0.0897
@<TRIPOS>BOND
     1    36    37    1
     2    37    30    1
     3    30    31   ar
     4    31    32   ar
     5    32    27    1
     6    27    28    1
     7    27    40    1
     8    40    41    1
     9    41    42    1
    10    42    43    1
    11    42    44    1
    12    27     1    1
    13     1    16    1
    14    16    17   ar
    15    17    18   ar
    16    18    25    1
    17    25    26    1
    18    18    19   ar
    19    19    20   ar
    20    20    22    1
    21    22    23    1
    22    22    24    1
    23    20    21   ar
    24     1     2    1
    25     2     3   ar
    26     3     4   ar
    27     4     5   ar
    28     5     6   ar
    29     6    12    1
    30    12    13    3
    31     6     7   ar
    32     7     8   ar
    33     8     9   ar
    34     9    10   ar
    35    10    11   ar
    36    11    14    1
    37    14    15    1
    38    32    33   ar
    39    33    34   ar
    40    34    38    1
    41    38    39    1
    42    34    35   ar
    43    35    30   ar
    44    21    16   ar
    45    11     2   ar
    46     9     4   ar
    47    28    29    1
@<TRIPOS>MOLECULE
*****
 44 47 0 0 0
SMALL
GASTEIGER

@<TRIPOS>ATOM
      1 C         141.4241  142.3358  162.5193 C.3     1  UNL1        0.0779
      2 C         141.8955  142.2819  163.9424 C.ar    1  UNL1        0.0373
      3 C         141.0402  141.6360  164.9918 C.ar    1  UNL1        0.0023
      4 C         141.5115  141.5821  166.4148 C.ar    1  UNL1        0.0183
      5 C         140.6562  140.9362  167.4642 C.ar    1  UNL1        0.0118
      6 C         141.1276  140.8823  168.8872 C.ar    1  UNL1        0.0685
      7 C         142.4542  141.4743  169.2608 C.ar    1  UNL1        0.0118
      8 C         143.3095  142.1202  168.2113 C.ar    1  UNL1        0.0199
      9 C         142.8382  142.1741  166.7884 C.ar    1  UNL1        0.0844
     10 N         143.6935  142.8201  165.7389 N.ar    1  UNL1       -0.2119
     11 C         143.2221  142.8739  164.3159 C.ar    1  UNL1        0.2211
     12 C         140.2724  140.2364  169.9367 C.1     1  UNL1        0.1004
     13 N         139.4171  139.5905  170.9861 N.1     1  UNL1       -0.1908
     14 O         144.0773  143.5198  163.2665 O.3     1  UNL1       -0.4563
     15 C         143.9894  144.9989  163.0331 C.3     1  UNL1        0.2542
     16 C         142.2845  141.7817  161.4227 C.ar    1  UNL1       -0.0083
     17 C         142.8918  140.4174  161.5627 C.ar    1  UNL1        0.0539
     18 C         143.7523  139.8633  160.4661 C.ar    1  UNL1        0.2258
     19 N         144.0055  140.6737  159.2294 N.ar    1  UNL1       -0.1967
     20 C         143.3982  142.0381  159.0894 C.ar    1  UNL1        0.1346
     21 C         142.5377  142.5921  160.1861 C.ar    1  UNL1        0.0307
     22 N         143.6513  142.8484  157.8528 N.pl3   1  UNL1       -0.2897
     23 C         142.7218  143.9670  157.4859 C.3     1  UNL1        0.1136
     24 C         144.8339  142.5401  156.9832 C.3     1  UNL1        0.1136
     25 O         144.3596  138.4989  160.6061 O.3     1  UNL1       -0.4561
     26 C         143.4930  137.3239  160.9500 C.3     1  UNL1        0.2542
     27 C         140.0922  142.9437  162.1930 C.3     1  UNL1        0.1161
     28 O         140.5928  144.2834  162.6453 O.3     1  UNL1       -0.3820
     29 H         139.8887  144.9428  162.5439 H       1  UNL1        0.2107
     30 C         138.9554  139.1423  162.2744 C.ar    1  UNL1        0.2272
     31 C         139.4561  140.4819  162.7268 C.ar    1  UNL1        0.0559
     32 C         139.5915  141.6041  161.7406 C.ar    1  UNL1        0.0117
     33 C         139.2262  141.3865  160.3022 C.ar    1  UNL1        0.0559
     34 C         138.7256  140.0468  159.8499 C.ar    1  UNL1        0.2272
     35 N         138.5902  138.9247  160.8360 N.ar    1  UNL1       -0.1767
     36 C         139.9573  137.6892  164.1810 C.3     1  UNL1        0.2542
     37 O         138.8200  138.0201  163.2606 O.3     1  UNL1       -0.4561
     38 O         138.3603  139.8293  158.4113 O.3     1  UNL1       -0.4561
     39 C         137.6528  140.9080  157.6458 C.3     1  UNL1        0.2542
     40 C         138.7603  143.5517  161.8666 C.3     1  UNL1        0.0491
     41 C         138.0424  144.3795  162.8912 C.3     1  UNL1        0.0750
     42 N         138.0619  143.9697  164.3340 N.3     1  UNL1       -0.2702
     43 C         138.5858  144.9142  165.3748 C.3     1  UNL1        0.0897
     44 C         137.5575  142.6154  164.7359 C.3     1  UNL1        0.0897
@<TRIPOS>BOND
     1    36    37    1
     2    37    30    1
     3    30    31   ar
     4    31    32   ar
     5    32    27    1
     6    27    28    1
     7    27    40    1
     8    40    41    1
     9    41    42    1
    10    42    43    1
    11    42    44    1
    12    27     1    1
    13     1    16    1
    14    16    17   ar
    15    17    18   ar
    16    18    25    1
    17    25    26    1
    18    18    19   ar
    19    19    20   ar
    20    20    22    1
    21    22    23    1
    22    22    24    1
    23    20    21   ar
    24     1     2    1
    25     2     3   ar
    26     3     4   ar
    27     4     5   ar
    28     5     6   ar
    29     6    12    1
    30    12    13    3
    31     6     7   ar
    32     7     8   ar
    33     8     9   ar
    34     9    10   ar
    35    10    11   ar
    36    11    14    1
    37    14    15    1
    38    32    33   ar
    39    33    34   ar
    40    34    38    1
    41    38    39    1
    42    34    35   ar
    43    35    30   ar
    44    21    16   ar
    45    11     2   ar
    46     9     4   ar
    47    28    29    1
@<TRIPOS>MOLECULE
*****
 44 47 0 0 0
SMALL
GASTEIGER

@<TRIPOS>ATOM
      1 C         141.3936  142.2749  162.5332 C.3     1  UNL1        0.0779
      2 C         141.8710  142.2322  163.9546 C.ar    1  UNL1        0.0373
      3 C         141.0233  141.5883  165.0114 C.ar    1  UNL1        0.0023
      4 C         141.5006  141.5455  166.4327 C.ar    1  UNL1        0.0183
      5 C         140.6530  140.9016  167.4895 C.ar    1  UNL1        0.0118
      6 C         141.1303  140.8588  168.9109 C.ar    1  UNL1        0.0685
      7 C         142.4554  141.4599  169.2755 C.ar    1  UNL1        0.0118
      8 C         143.3031  142.1038  168.2187 C.ar    1  UNL1        0.0199
      9 C         142.8257  142.1466  166.7974 C.ar    1  UNL1        0.0844
     10 N         143.6734  142.7905  165.7406 N.ar    1  UNL1       -0.2119
     11 C         143.1960  142.8333  164.3191 C.ar    1  UNL1        0.2211
     12 C         140.2826  140.2149  169.9677 C.1     1  UNL1        0.1004
     13 N         139.4350  139.5710  171.0245 N.1     1  UNL1       -0.1908
     14 O         144.0437  143.4772  163.2623 O.3     1  UNL1       -0.4563
     15 C         143.9675  144.9585  163.0392 C.3     1  UNL1        0.2542
     16 C         142.2474  141.7082  161.4379 C.ar    1  UNL1       -0.0083
     17 C         142.8095  140.3234  161.5655 C.ar    1  UNL1        0.0539
     18 C         143.6633  139.7566  160.4702 C.ar    1  UNL1        0.2258
     19 N         143.9551  140.5747  159.2472 N.ar    1  UNL1       -0.1967
     20 C         143.3931  141.9596  159.1196 C.ar    1  UNL1        0.1346
     21 C         142.5392  142.5263  160.2150 C.ar    1  UNL1        0.0307
     22 N         143.6848  142.7777  157.8967 N.pl3   1  UNL1       -0.2897
     23 C         142.8167  143.9524  157.5555 C.3     1  UNL1        0.1136
     24 C         144.8447  142.4211  157.0149 C.3     1  UNL1        0.1136
     25 O         144.2254  138.3718  160.5978 O.3     1  UNL1       -0.4561
     26 C         143.3130  137.1830  160.5311 C.3     1  UNL1        0.2542
     27 C         140.0624  142.8845  162.2072 C.3     1  UNL1        0.1161
     28 O         140.5663  144.2245  162.6548 O.3     1  UNL1       -0.3820
     29 H         139.8633  144.8850  162.5525 H       1  UNL1        0.2107
     30 C         138.7091  139.9764  159.8702 C.ar    1  UNL1        0.2272
     31 C         139.2130  141.3164  160.3178 C.ar    1  UNL1        0.0559
     32 C         139.5584  141.5445  161.7595 C.ar    1  UNL1        0.0117
     33 C         139.3999  140.4325  162.7536 C.ar    1  UNL1        0.0559
     34 C         138.8960  139.0924  162.3060 C.ar    1  UNL1        0.2272
     35 N         138.5506  138.8644  160.8643 N.ar    1  UNL1       -0.1767
     36 C         137.8299  140.8774  157.5974 C.3     1  UNL1        0.2542
     37 O         138.3637  139.7484  158.4284 O.3     1  UNL1       -0.4561
     38 O         138.7375  137.9804  163.3002 O.3     1  UNL1       -0.4561
     39 C         139.7322  137.8205  164.4115 C.3     1  UNL1        0.2542
     40 C         138.7312  143.4940  161.8811 C.3     1  UNL1        0.0491
     41 C         138.0292  144.3486  162.8946 C.3     1  UNL1        0.0750
     42 N         138.0352  143.9539  164.3417 N.3     1  UNL1       -0.2702
     43 C         138.5430  144.9117  165.3783 C.3     1  UNL1        0.0897
     44 C         137.5332  142.6012  164.7522 C.3     1  UNL1        0.0897
@<TRIPOS>BOND
     1    36    37    1
     2    37    30    1
     3    30    31   ar
     4    31    32   ar
     5    32    27    1
     6    27    28    1
     7    27    40    1
     8    40    41    1
     9    41    42    1
    10    42    43    1
    11    42    44    1
    12    27     1    1
    13     1    16    1
    14    16    17   ar
    15    17    18   ar
    16    18    25    1
    17    25    26    1
    18    18    19   ar
    19    19    20   ar
    20    20    22    1
    21    22    23    1
    22    22    24    1
    23    20    21   ar
    24     1     2    1
    25     2     3   ar
    26     3     4   ar
    27     4     5   ar
    28     5     6   ar
    29     6    12    1
    30    12    13    3
    31     6     7   ar
    32     7     8   ar
    33     8     9   ar
    34     9    10   ar
    35    10    11   ar
    36    11    14    1
    37    14    15    1
    38    32    33   ar
    39    33    34   ar
    40    34    38    1
    41    38    39    1
    42    34    35   ar
    43    35    30   ar
    44    21    16   ar
    45    11     2   ar
    46     9     4   ar
    47    28    29    1
@<TRIPOS>MOLECULE
*****
 44 47 0 0 0
SMALL
GASTEIGER

@<TRIPOS>ATOM
      1 C         140.8680  139.9665  162.1165 C.3     1  UNL1        0.0779
      2 C         140.1703  139.6756  163.4122 C.ar    1  UNL1        0.0373
      3 C         140.5808  140.3948  164.6629 C.ar    1  UNL1        0.0023
      4 C         139.8831  140.1040  165.9585 C.ar    1  UNL1        0.0183
      5 C         140.2936  140.8232  167.2093 C.ar    1  UNL1        0.0118
      6 C         139.5959  140.5323  168.5050 C.ar    1  UNL1        0.0685
      7 C         138.4879  139.5222  168.5498 C.ar    1  UNL1        0.0118
      8 C         138.0775  138.8030  167.2991 C.ar    1  UNL1        0.0199
      9 C         138.7751  139.0939  166.0035 C.ar    1  UNL1        0.0844
     10 N         138.3646  138.3747  164.7528 N.ar    1  UNL1       -0.2119
     11 C         139.0623  138.6656  163.4571 C.ar    1  UNL1        0.2211
     12 C         140.0063  141.2514  169.7557 C.1     1  UNL1        0.1004
     13 N         140.4167  141.9706  171.0064 N.1     1  UNL1       -0.1908
     14 O         138.6519  137.9464  162.2063 O.3     1  UNL1       -0.4563
     15 C         137.5110  138.4657  161.3826 C.3     1  UNL1        0.2542
     16 C         140.5499  141.2213  161.3586 C.ar    1  UNL1       -0.0083
     17 C         140.7027  141.2556  159.8668 C.ar    1  UNL1        0.0539
     18 C         140.3846  142.5103  159.1090 C.ar    1  UNL1        0.2258
     19 N         139.9137  143.7308  159.8429 N.ar    1  UNL1       -0.1967
     20 C         139.7609  143.6966  161.3347 C.ar    1  UNL1        0.1346
     21 C         140.0791  142.4417  162.0926 C.ar    1  UNL1        0.0307
     22 N         139.2901  144.9170  162.0687 N.pl3   1  UNL1       -0.2897
     23 C         138.3416  144.7790  163.2225 C.3     1  UNL1        0.1136
     24 C         139.7677  146.2756  161.6488 C.3     1  UNL1        0.1136
     25 O         140.5374  142.5446  157.6172 O.3     1  UNL1       -0.4561
     26 C         139.7883  141.5643  156.7638 C.3     1  UNL1        0.2542
     27 C         141.8838  139.0027  161.5788 C.3     1  UNL1        0.1161
     28 O         140.8487  138.4246  160.6598 O.3     1  UNL1       -0.3820
     29 H         141.2449  137.7123  160.1339 H       1  UNL1        0.2107
     30 C         144.4259  139.3727  164.6037 C.ar    1  UNL1        0.2272
     31 C         143.3908  138.7946  163.6848 C.ar    1  UNL1        0.0559
     32 C         142.9188  139.5807  162.4977 C.ar    1  UNL1        0.0117
     33 C         143.4819  140.9449  162.2296 C.ar    1  UNL1        0.0559
     34 C         144.5169  141.5230  163.1486 C.ar    1  UNL1        0.2272
     35 N         144.9889  140.7369  164.3356 N.ar    1  UNL1       -0.1767
     36 C         143.9036  137.8958  166.6765 C.3     1  UNL1        0.2542
     37 O         144.8979  138.5865  165.7909 O.3     1  UNL1       -0.4561
     38 O         145.0800  142.8873  162.8804 O.3     1  UNL1       -0.4561
     39 C         144.1604  144.0644  162.7432 C.3     1  UNL1        0.2542
     40 C         142.8995  138.0388  161.0410 C.3     1  UNL1        0.0491
     41 C         142.9126  137.7007  159.5796 C.3     1  UNL1        0.0750
     42 N         143.0083  138.7946  158.5577 N.3     1  UNL1       -0.2702
     43 C         142.1632  138.7403  157.3196 C.3     1  UNL1        0.0897
     44 C         143.9490  139.9428  158.7738 C.3     1  UNL1        0.0897
@<TRIPOS>BOND
     1    36    37    1
     2    37    30    1
     3    30    31   ar
     4    31    32   ar
     5    32    27    1
     6    27    28    1
     7    27    40    1
     8    40    41    1
     9    41    42    1
    10    42    43    1
    11    42    44    1
    12    27     1    1
    13     1    16    1
    14    16    17   ar
    15    17    18   ar
    16    18    25    1
    17    25    26    1
    18    18    19   ar
    19    19    20   ar
    20    20    22    1
    21    22    23    1
    22    22    24    1
    23    20    21   ar
    24     1     2    1
    25     2     3   ar
    26     3     4   ar
    27     4     5   ar
    28     5     6   ar
    29     6    12    1
    30    12    13    3
    31     6     7   ar
    32     7     8   ar
    33     8     9   ar
    34     9    10   ar
    35    10    11   ar
    36    11    14    1
    37    14    15    1
    38    32    33   ar
    39    33    34   ar
    40    34    38    1
    41    38    39    1
    42    34    35   ar
    43    35    30   ar
    44    21    16   ar
    45    11     2   ar
    46     9     4   ar
    47    28    29    1
@<TRIPOS>MOLECULE
*****
 44 47 0 0 0
SMALL
GASTEIGER

@<TRIPOS>ATOM
      1 C         141.9152  142.5497  161.5896 C.3     1  UNL1        0.0779
      2 C         141.8586  141.9778  162.9752 C.ar    1  UNL1        0.0373
      3 C         140.6208  141.2733  163.4458 C.ar    1  UNL1        0.0023
      4 C         140.5641  140.7014  164.8313 C.ar    1  UNL1        0.0183
      5 C         139.3263  139.9969  165.3019 C.ar    1  UNL1        0.0118
      6 C         139.2697  139.4250  166.6875 C.ar    1  UNL1        0.0685
      7 C         140.4509  139.5577  167.6024 C.ar    1  UNL1        0.0118
      8 C         141.6887  140.2622  167.1318 C.ar    1  UNL1        0.0199
      9 C         141.7454  140.8341  165.7463 C.ar    1  UNL1        0.0844
     10 N         142.9832  141.5386  165.2757 N.ar    1  UNL1       -0.2119
     11 C         143.0398  142.1105  163.8901 C.ar    1  UNL1        0.2211
     12 C         138.0319  138.7205  167.1580 C.1     1  UNL1        0.1004
     13 N         136.7941  138.0160  167.6286 N.1     1  UNL1       -0.1908
     14 O         144.2776  142.8150  163.4196 O.3     1  UNL1       -0.4563
     15 C         145.5278  142.0326  163.1460 C.3     1  UNL1        0.2542
     16 C         142.6957  141.8463  160.5192 C.ar    1  UNL1       -0.0083
     17 C         143.7254  142.5956  159.7265 C.ar    1  UNL1        0.0539
     18 C         144.5059  141.8921  158.6561 C.ar    1  UNL1        0.2258
     19 N         144.2568  140.4392  158.3783 N.ar    1  UNL1       -0.1967
     20 C         143.2272  139.6899  159.1709 C.ar    1  UNL1        0.1346
     21 C         142.4466  140.3934  160.2414 C.ar    1  UNL1        0.0307
     22 N         142.9781  138.2371  158.8932 N.pl3   1  UNL1       -0.2897
     23 C         142.6955  137.7789  157.4931 C.3     1  UNL1        0.1136
     24 C         143.0116  137.2424  160.0155 C.3     1  UNL1        0.1136
     25 O         145.5356  142.6415  157.8635 O.3     1  UNL1       -0.4561
     26 C         146.1603  142.0073  156.6561 C.3     1  UNL1        0.2542
     27 C         141.1912  143.8251  161.2745 C.3     1  UNL1        0.1161
     28 O         142.1238  144.5774  162.1769 O.3     1  UNL1       -0.3820
     29 H         141.8834  145.5172  162.1793 H       1  UNL1        0.2107
     30 C         138.4092  141.2788  160.0391 C.ar    1  UNL1        0.2272
     31 C         139.3418  142.0311  160.9415 C.ar    1  UNL1        0.0559
     32 C         140.2587  143.0728  160.3721 C.ar    1  UNL1        0.0117
     33 C         140.2430  143.3621  158.9004 C.ar    1  UNL1        0.0559
     34 C         139.3104  142.6098  157.9980 C.ar    1  UNL1        0.2272
     35 N         138.3935  141.5681  158.5674 N.ar    1  UNL1       -0.1767
     36 C         137.9972  139.2809  161.6481 C.3     1  UNL1        0.2542
     37 O         137.4923  140.2370  160.6085 O.3     1  UNL1       -0.4561
     38 O         139.2947  142.8992  156.5262 O.3     1  UNL1       -0.4561
     39 C         139.5552  144.2916  156.0329 C.3     1  UNL1        0.2542
     40 C         140.4673  145.1005  160.9594 C.3     1  UNL1        0.0491
     41 C         139.7170  145.8233  162.0387 C.3     1  UNL1        0.0750
     42 N         139.0872  145.0516  163.1601 N.3     1  UNL1       -0.2702
     43 C         137.7590  144.3844  162.9582 C.3     1  UNL1        0.0897
     44 C         139.7856  144.9470  164.4836 C.3     1  UNL1        0.0897
@<TRIPOS>BOND
     1    36    37    1
     2    37    30    1
     3    30    31   ar
     4    31    32   ar
     5    32    27    1
     6    27    28    1
     7    27    40    1
     8    40    41    1
     9    41    42    1
    10    42    43    1
    11    42    44    1
    12    27     1    1
    13     1    16    1
    14    16    17   ar
    15    17    18   ar
    16    18    25    1
    17    25    26    1
    18    18    19   ar
    19    19    20   ar
    20    20    22    1
    21    22    23    1
    22    22    24    1
    23    20    21   ar
    24     1     2    1
    25     2     3   ar
    26     3     4   ar
    27     4     5   ar
    28     5     6   ar
    29     6    12    1
    30    12    13    3
    31     6     7   ar
    32     7     8   ar
    33     8     9   ar
    34     9    10   ar
    35    10    11   ar
    36    11    14    1
    37    14    15    1
    38    32    33   ar
    39    33    34   ar
    40    34    38    1
    41    38    39    1
    42    34    35   ar
    43    35    30   ar
    44    21    16   ar
    45    11     2   ar
    46     9     4   ar
    47    28    29    1
