@<TRIPOS>MOLECULE
*****
 29 33 0 0 0
SMALL
GASTEIGER

@<TRIPOS>ATOM
      1 C         139.6876  141.1800  170.1597 C.3     1  UNL1        0.0351
      2 C         139.9871  141.0568  168.6951 C.ar    1  UNL1        0.0259
      3 C         141.0347  141.9281  168.0679 C.ar    1  UNL1        0.1510
      4 F         141.7828  142.9227  168.9054 F       1  UNL1       -0.2031
      5 C         141.3343  141.8049  166.6033 C.ar    1  UNL1        0.0784
      6 C         140.5863  140.8104  165.7659 C.ar    1  UNL1        0.0357
      7 C         139.5387  139.9391  166.3930 C.ar    1  UNL1        0.0800
      8 C         139.2391  140.0622  167.8576 C.ar    1  UNL1        0.0970
      9 N         138.1606  139.0758  168.1947 N.ar    1  UNL1       -0.2242
     10 C         137.7936  138.3429  166.9384 C.ar    1  UNL1        0.1785
     11 N         138.6454  138.8764  165.8249 N.ar    1  UNL1       -0.3090
     12 N         142.3820  142.6763  165.9761 N.pl3   1  UNL1       -0.2962
     13 H         143.1666  142.9575  166.5001 H       1  UNL1        0.1537
     14 C         142.2340  143.1191  164.5507 C.ar    1  UNL1        0.1322
     15 C         141.1135  144.0379  164.1630 C.ar    1  UNL1        0.0345
     16 C         140.9656  144.4807  162.7376 C.ar    1  UNL1        0.0060
     17 C         141.9383  144.0046  161.6996 C.ar    1  UNL1        0.0384
     18 C         143.0587  143.0858  162.0871 C.ar    1  UNL1        0.1018
     19 N         143.2066  142.6430  163.5127 N.ar    1  UNL1       -0.2290
     20 C         141.7903  144.4474  160.2741 C.ar    1  UNL1        0.1017
     21 C         140.7066  145.3326  159.7338 C.ar    1  UNL1        0.0965
     22 N         140.9466  145.5150  158.2644 N.ar    1  UNL1       -0.3059
     23 C         140.1027  146.3273  157.3273 C.3     1  UNL1        0.1321
     24 C         142.1787  144.7426  157.8966 C.ar    1  UNL1        0.1786
     25 N         142.7001  144.0828  159.1386 N.ar    1  UNL1       -0.2238
     26 C         138.6099  138.4264  164.3944 C.3     1  UNL1        0.1075
     27 C         139.8396  137.8476  163.7596 C.3     1  UNL1        0.0227
     28 C         141.1419  137.1135  163.8820 C.3     1  UNL1        0.0020
     29 C         140.6670  137.5794  162.5375 C.3     1  UNL1        0.0020
@<TRIPOS>BOND
     1     1     2    1
     2     2     3   ar
     3     3     4    1
     4     3     5   ar
     5     5    12    1
     6    12    14    1
     7    14    15   ar
     8    15    16   ar
     9    16    17   ar
    10    17    20    1
    11    20    21   ar
    12    21    22   ar
    13    22    23    1
    14    22    24   ar
    15    24    25   ar
    16    17    18   ar
    17    18    19   ar
    18     5     6   ar
    19     6     7   ar
    20     7     8   ar
    21     8     9   ar
    22     9    10   ar
    23    10    11   ar
    24    11    26    1
    25    26    27    1
    26    27    28    1
    27    28    29    1
    28     8     2   ar
    29    29    27    1
    30    19    14   ar
    31    11     7   ar
    32    25    20   ar
    33    12    13    1
@<TRIPOS>MOLECULE
*****
 29 33 0 0 0
SMALL
GASTEIGER

@<TRIPOS>ATOM
      1 C         141.2892  139.8786  169.6844 C.3     1  UNL1        0.0351
      2 C         141.5649  140.3513  168.2877 C.ar    1  UNL1        0.0259
      3 C         140.8796  141.5778  167.7620 C.ar    1  UNL1        0.1510
      4 F         139.9187  142.3315  168.6331 F       1  UNL1       -0.2031
      5 C         141.1553  142.0504  166.3655 C.ar    1  UNL1        0.0784
      6 C         142.1161  141.2968  165.4945 C.ar    1  UNL1        0.0357
      7 C         142.8014  140.0703  166.0201 C.ar    1  UNL1        0.0800
      8 C         142.5257  139.5976  167.4167 C.ar    1  UNL1        0.0970
      9 N         143.3444  138.3642  167.6587 N.ar    1  UNL1       -0.2242
     10 C         144.1260  138.0747  166.4116 C.ar    1  UNL1        0.1785
     11 N         143.7904  139.1291  165.3989 N.ar    1  UNL1       -0.3090
     12 N         140.4700  143.2769  165.8398 N.pl3   1  UNL1       -0.2962
     13 H         139.9095  143.8222  166.4379 H       1  UNL1        0.1537
     14 C         140.6388  143.6725  164.4028 C.ar    1  UNL1        0.1322
     15 C         141.7824  144.5544  163.9969 C.ar    1  UNL1        0.0345
     16 C         141.9512  144.9499  162.5599 C.ar    1  UNL1        0.0060
     17 C         140.9764  144.4636  161.5286 C.ar    1  UNL1        0.0384
     18 C         139.8329  143.5818  161.9344 C.ar    1  UNL1        0.1018
     19 N         139.6641  143.1862  163.3715 N.ar    1  UNL1       -0.2290
     20 C         141.1452  144.8592  160.0916 C.ar    1  UNL1        0.1017
     21 C         140.1254  145.5613  159.2449 C.ar    1  UNL1        0.0965
     22 N         140.7134  145.7582  157.8789 N.ar    1  UNL1       -0.3059
     23 C         140.0369  146.4194  156.7148 C.3     1  UNL1        0.1321
     24 C         142.0965  145.1777  157.8816 C.ar    1  UNL1        0.1786
     25 N         142.3634  144.6221  159.2491 N.ar    1  UNL1       -0.2238
     26 C         144.3463  139.2254  164.0090 C.3     1  UNL1        0.1075
     27 C         144.9694  140.5058  163.5374 C.3     1  UNL1        0.0227
     28 C         145.1118  141.5740  162.4941 C.3     1  UNL1        0.0020
     29 C         145.9061  141.6551  163.7640 C.3     1  UNL1        0.0020
@<TRIPOS>BOND
     1     1     2    1
     2     2     3   ar
     3     3     4    1
     4     3     5   ar
     5     5    12    1
     6    12    14    1
     7    14    15   ar
     8    15    16   ar
     9    16    17   ar
    10    17    20    1
    11    20    21   ar
    12    21    22   ar
    13    22    23    1
    14    22    24   ar
    15    24    25   ar
    16    17    18   ar
    17    18    19   ar
    18     5     6   ar
    19     6     7   ar
    20     7     8   ar
    21     8     9   ar
    22     9    10   ar
    23    10    11   ar
    24    11    26    1
    25    26    27    1
    26    27    28    1
    27    28    29    1
    28     8     2   ar
    29    29    27    1
    30    19    14   ar
    31    11     7   ar
    32    25    20   ar
    33    12    13    1
@<TRIPOS>MOLECULE
*****
 29 33 0 0 0
SMALL
GASTEIGER

@<TRIPOS>ATOM
      1 C         139.0904  140.3198  169.9382 C.3     1  UNL1        0.0351
      2 C         139.6067  140.2567  168.5313 C.ar    1  UNL1        0.0259
      3 C         138.8493  139.4895  167.4882 C.ar    1  UNL1        0.1510
      4 F         137.5757  138.7855  167.8522 F       1  UNL1       -0.2031
      5 C         139.3655  139.4262  166.0813 C.ar    1  UNL1        0.0784
      6 C         140.6390  140.1302  165.7173 C.ar    1  UNL1        0.0357
      7 C         141.3964  140.8974  166.7603 C.ar    1  UNL1        0.0800
      8 C         140.8802  140.9606  168.1673 C.ar    1  UNL1        0.0970
      9 N         141.8359  141.7879  168.9749 N.ar    1  UNL1       -0.2242
     10 C         142.9427  142.2360  168.0670 C.ar    1  UNL1        0.1785
     11 N         142.6711  141.6856  166.6983 N.ar    1  UNL1       -0.3090
     12 N         138.6081  138.6590  165.0382 N.pl3   1  UNL1       -0.2962
     13 H         138.1911  137.7971  165.2671 H       1  UNL1        0.1537
     14 C         138.4862  139.2052  163.6466 C.ar    1  UNL1        0.1322
     15 C         138.9469  138.3872  162.4767 C.ar    1  UNL1        0.0345
     16 C         138.8249  138.9334  161.0850 C.ar    1  UNL1        0.0060
     17 C         138.2422  140.2978  160.8632 C.ar    1  UNL1        0.0384
     18 C         137.7815  141.1157  162.0330 C.ar    1  UNL1        0.1018
     19 N         137.9035  140.5695  163.4247 N.ar    1  UNL1       -0.2290
     20 C         138.1203  140.8440  159.4715 C.ar    1  UNL1        0.1017
     21 C         138.6329  142.1715  158.9974 C.ar    1  UNL1        0.0965
     22 N         138.2938  142.3066  157.5424 N.ar    1  UNL1       -0.3059
     23 C         138.6196  143.4797  156.6664 C.3     1  UNL1        0.1321
     24 C         137.5715  141.0625  157.1175 C.ar    1  UNL1        0.1786
     25 N         137.4643  140.1586  158.3097 N.ar    1  UNL1       -0.2238
     26 C         143.5244  141.8880  165.4814 C.3     1  UNL1        0.1075
     27 C         144.1480  140.7073  164.7979 C.3     1  UNL1        0.0227
     28 C         144.4074  139.2314  164.7333 C.3     1  UNL1        0.0020
     29 C         144.9689  140.1384  163.6787 C.3     1  UNL1        0.0020
@<TRIPOS>BOND
     1     1     2    1
     2     2     3   ar
     3     3     4    1
     4     3     5   ar
     5     5    12    1
     6    12    14    1
     7    14    15   ar
     8    15    16   ar
     9    16    17   ar
    10    17    20    1
    11    20    21   ar
    12    21    22   ar
    13    22    23    1
    14    22    24   ar
    15    24    25   ar
    16    17    18   ar
    17    18    19   ar
    18     5     6   ar
    19     6     7   ar
    20     7     8   ar
    21     8     9   ar
    22     9    10   ar
    23    10    11   ar
    24    11    26    1
    25    26    27    1
    26    27    28    1
    27    28    29    1
    28     8     2   ar
    29    29    27    1
    30    19    14   ar
    31    11     7   ar
    32    25    20   ar
    33    12    13    1
@<TRIPOS>MOLECULE
*****
 29 33 0 0 0
SMALL
GASTEIGER

@<TRIPOS>ATOM
      1 C         139.2031  140.4361  169.9099 C.3     1  UNL1        0.0351
      2 C         139.6540  140.2704  168.4888 C.ar    1  UNL1        0.0259
      3 C         138.8396  139.4480  167.5346 C.ar    1  UNL1        0.1510
      4 F         137.5743  138.7913  168.0015 F       1  UNL1       -0.2031
      5 C         139.2904  139.2823  166.1137 C.ar    1  UNL1        0.0784
      6 C         140.5557  139.9390  165.6468 C.ar    1  UNL1        0.0357
      7 C         141.3701  140.7613  166.6010 C.ar    1  UNL1        0.0800
      8 C         140.9192  140.9271  168.0220 C.ar    1  UNL1        0.0970
      9 N         141.9218  141.7904  168.7287 N.ar    1  UNL1       -0.2242
     10 C         142.9923  142.1582  167.7445 C.ar    1  UNL1        0.1785
     11 N         142.6513  141.5223  166.4294 N.ar    1  UNL1       -0.3090
     12 N         138.4760  138.4599  165.1594 N.pl3   1  UNL1       -0.2962
     13 H         137.8698  137.7642  165.5025 H       1  UNL1        0.1537
     14 C         138.5854  138.6976  163.6824 C.ar    1  UNL1        0.1322
     15 C         139.4004  137.7692  162.8316 C.ar    1  UNL1        0.0345
     16 C         139.5097  138.0068  161.3546 C.ar    1  UNL1        0.0060
     17 C         138.8040  139.1730  160.7284 C.ar    1  UNL1        0.0384
     18 C         137.9891  140.1014  161.5791 C.ar    1  UNL1        0.1018
     19 N         137.8797  139.8637  163.0562 N.ar    1  UNL1       -0.2290
     20 C         138.9134  139.4107  159.2514 C.ar    1  UNL1        0.1017
     21 C         139.9323  138.8028  158.3336 C.ar    1  UNL1        0.0965
     22 N         139.6717  139.3144  156.9478 N.ar    1  UNL1       -0.3059
     23 C         140.4538  138.9635  155.7169 C.3     1  UNL1        0.1321
     24 C         138.4917  140.2384  157.0091 C.ar    1  UNL1        0.1786
     25 N         138.0230  140.2979  158.4328 N.ar    1  UNL1       -0.2238
     26 C         143.4511  141.6286  165.1649 C.3     1  UNL1        0.1075
     27 C         144.0411  140.3967  164.5449 C.3     1  UNL1        0.0227
     28 C         145.2226  139.5076  164.2929 C.3     1  UNL1        0.0020
     29 C         143.8815  139.1522  163.7228 C.3     1  UNL1        0.0020
@<TRIPOS>BOND
     1     1     2    1
     2     2     3   ar
     3     3     4    1
     4     3     5   ar
     5     5    12    1
     6    12    14    1
     7    14    15   ar
     8    15    16   ar
     9    16    17   ar
    10    17    20    1
    11    20    21   ar
    12    21    22   ar
    13    22    23    1
    14    22    24   ar
    15    24    25   ar
    16    17    18   ar
    17    18    19   ar
    18     5     6   ar
    19     6     7   ar
    20     7     8   ar
    21     8     9   ar
    22     9    10   ar
    23    10    11   ar
    24    11    26    1
    25    26    27    1
    26    27    28    1
    27    28    29    1
    28     8     2   ar
    29    29    27    1
    30    19    14   ar
    31    11     7   ar
    32    25    20   ar
    33    12    13    1
@<TRIPOS>MOLECULE
*****
 29 33 0 0 0
SMALL
GASTEIGER

@<TRIPOS>ATOM
      1 C         139.6569  141.0907  170.2484 C.3     1  UNL1        0.0351
      2 C         140.0297  140.9621  168.8011 C.ar    1  UNL1        0.0259
      3 C         141.1564  141.7791  168.2414 C.ar    1  UNL1        0.1510
      4 F         141.9103  142.7246  169.1290 F       1  UNL1       -0.2031
      5 C         141.5291  141.6506  166.7942 C.ar    1  UNL1        0.0784
      6 C         140.7753  140.7051  165.9066 C.ar    1  UNL1        0.0357
      7 C         139.6487  139.8882  166.4663 C.ar    1  UNL1        0.0800
      8 C         139.2758  140.0167  167.9135 C.ar    1  UNL1        0.0970
      9 N         138.1281  139.0887  168.1807 N.ar    1  UNL1       -0.2242
     10 C         137.7915  138.3866  166.8986 C.ar    1  UNL1        0.1785
     11 N         138.7313  138.8807  165.8390 N.ar    1  UNL1       -0.3090
     12 N         142.6558  142.4676  166.2345 N.pl3   1  UNL1       -0.2962
     13 H         143.3038  142.8935  166.8411 H       1  UNL1        0.1537
     14 C         142.7953  142.6354  164.7504 C.ar    1  UNL1        0.1322
     15 C         143.8757  141.9034  164.0110 C.ar    1  UNL1        0.0345
     16 C         144.0152  142.0712  162.5269 C.ar    1  UNL1        0.0060
     17 C         143.0741  142.9713  161.7823 C.ar    1  UNL1        0.0384
     18 C         141.9937  143.7033  162.5217 C.ar    1  UNL1        0.1018
     19 N         141.8543  143.5354  164.0058 N.ar    1  UNL1       -0.2290
     20 C         143.2135  143.1392  160.2983 C.ar    1  UNL1        0.1017
     21 C         144.0960  142.3262  159.3981 C.ar    1  UNL1        0.0965
     22 N         143.9229  142.8340  157.9973 N.ar    1  UNL1       -0.3059
     23 C         144.6173  142.3075  156.7764 C.3     1  UNL1        0.1321
     24 C         142.9334  143.9609  158.0318 C.ar    1  UNL1        0.1786
     25 N         142.4950  144.1495  159.4539 N.ar    1  UNL1       -0.2238
     26 C         138.7503  138.4441  164.4041 C.3     1  UNL1        0.1075
     27 C         139.9713  137.7820  163.8377 C.3     1  UNL1        0.0227
     28 C         141.1964  136.9372  164.0260 C.3     1  UNL1        0.0020
     29 C         140.8610  137.4799  162.6685 C.3     1  UNL1        0.0020
@<TRIPOS>BOND
     1     1     2    1
     2     2     3   ar
     3     3     4    1
     4     3     5   ar
     5     5    12    1
     6    12    14    1
     7    14    15   ar
     8    15    16   ar
     9    16    17   ar
    10    17    20    1
    11    20    21   ar
    12    21    22   ar
    13    22    23    1
    14    22    24   ar
    15    24    25   ar
    16    17    18   ar
    17    18    19   ar
    18     5     6   ar
    19     6     7   ar
    20     7     8   ar
    21     8     9   ar
    22     9    10   ar
    23    10    11   ar
    24    11    26    1
    25    26    27    1
    26    27    28    1
    27    28    29    1
    28     8     2   ar
    29    29    27    1
    30    19    14   ar
    31    11     7   ar
    32    25    20   ar
    33    12    13    1
@<TRIPOS>MOLECULE
*****
 29 33 0 0 0
SMALL
GASTEIGER

@<TRIPOS>ATOM
      1 C         141.6003  141.5995  170.1852 C.3     1  UNL1        0.0351
      2 C         141.4841  141.5789  168.6898 C.ar    1  UNL1        0.0259
      3 C         140.7082  142.6506  167.9830 C.ar    1  UNL1        0.1510
      4 F         140.0485  143.7429  168.7717 F       1  UNL1       -0.2031
      5 C         140.5921  142.6301  166.4877 C.ar    1  UNL1        0.0784
      6 C         141.2517  141.5380  165.6991 C.ar    1  UNL1        0.0357
      7 C         142.0276  140.4663  166.4058 C.ar    1  UNL1        0.0800
      8 C         142.1438  140.4867  167.9012 C.ar    1  UNL1        0.0970
      9 N         142.9680  139.3049  168.3183 N.ar    1  UNL1       -0.2242
     10 C         143.3611  138.5540  167.0808 C.ar    1  UNL1        0.1785
     11 N         142.7800  139.2717  165.8988 N.ar    1  UNL1       -0.3090
     12 N         139.8162  143.7019  165.7809 N.pl3   1  UNL1       -0.2962
     13 H         139.1652  144.2477  166.2784 H       1  UNL1        0.1537
     14 C         140.0322  143.9418  164.3161 C.ar    1  UNL1        0.1322
     15 C         141.1486  144.8331  163.8586 C.ar    1  UNL1        0.0345
     16 C         141.3646  145.0730  162.3937 C.ar    1  UNL1        0.0060
     17 C         140.4641  144.4216  161.3863 C.ar    1  UNL1        0.0384
     18 C         139.3477  143.5304  161.8437 C.ar    1  UNL1        0.1018
     19 N         139.1317  143.2905  163.3086 N.ar    1  UNL1       -0.2290
     20 C         140.6801  144.6615  159.9215 C.ar    1  UNL1        0.1017
     21 C         139.8529  144.0977  158.8044 C.ar    1  UNL1        0.0965
     22 N         140.4228  144.5951  157.5090 N.ar    1  UNL1       -0.3059
     23 C         139.9043  144.2770  156.1378 C.3     1  UNL1        0.1321
     24 C         141.6020  145.4664  157.8256 C.ar    1  UNL1        0.1786
     25 N         141.7610  145.5074  159.3166 N.ar    1  UNL1       -0.2238
     26 C         142.9256  138.8662  164.4620 C.3     1  UNL1        0.1075
     27 C         141.7876  138.1930  163.7536 C.3     1  UNL1        0.0227
     28 C         140.9038  136.9966  163.5596 C.3     1  UNL1        0.0020
     29 C         140.7003  138.2233  162.7208 C.3     1  UNL1        0.0020
@<TRIPOS>BOND
     1     1     2    1
     2     2     3   ar
     3     3     4    1
     4     3     5   ar
     5     5    12    1
     6    12    14    1
     7    14    15   ar
     8    15    16   ar
     9    16    17   ar
    10    17    20    1
    11    20    21   ar
    12    21    22   ar
    13    22    23    1
    14    22    24   ar
    15    24    25   ar
    16    17    18   ar
    17    18    19   ar
    18     5     6   ar
    19     6     7   ar
    20     7     8   ar
    21     8     9   ar
    22     9    10   ar
    23    10    11   ar
    24    11    26    1
    25    26    27    1
    26    27    28    1
    27    28    29    1
    28     8     2   ar
    29    29    27    1
    30    19    14   ar
    31    11     7   ar
    32    25    20   ar
    33    12    13    1
@<TRIPOS>MOLECULE
*****
 29 33 0 0 0
SMALL
GASTEIGER

@<TRIPOS>ATOM
      1 C         139.4055  140.4465  169.8958 C.3     1  UNL1        0.0351
      2 C         139.7620  140.3672  168.4409 C.ar    1  UNL1        0.0259
      3 C         138.9070  139.5692  167.5016 C.ar    1  UNL1        0.1510
      4 F         137.6954  138.8506  168.0173 F       1  UNL1       -0.2031
      5 C         139.2634  139.4898  166.0468 C.ar    1  UNL1        0.0784
      6 C         140.4749  140.2084  165.5312 C.ar    1  UNL1        0.0357
      7 C         141.3300  141.0063  166.4704 C.ar    1  UNL1        0.0800
      8 C         140.9735  141.0857  167.9253 C.ar    1  UNL1        0.0970
      9 N         141.9981  141.9429  168.6075 N.ar    1  UNL1       -0.2242
     10 C         142.9878  142.3934  167.5742 C.ar    1  UNL1        0.1785
     11 N         142.5749  141.8145  166.2534 N.ar    1  UNL1       -0.3090
     12 N         138.4083  138.6919  165.1075 N.pl3   1  UNL1       -0.2962
     13 H         137.7984  138.0044  165.4606 H       1  UNL1        0.1537
     14 C         138.4826  138.9414  163.6303 C.ar    1  UNL1        0.1322
     15 C         137.8327  140.1583  163.0415 C.ar    1  UNL1        0.0345
     16 C         137.9070  140.4078  161.5643 C.ar    1  UNL1        0.0060
     17 C         138.6313  139.4403  160.6758 C.ar    1  UNL1        0.0384
     18 C         139.2812  138.2234  161.2645 C.ar    1  UNL1        0.1018
     19 N         139.2069  137.9739  162.7418 N.ar    1  UNL1       -0.2290
     20 C         138.7056  139.6898  159.1986 C.ar    1  UNL1        0.1017
     21 C         138.1396  140.8757  158.4752 C.ar    1  UNL1        0.0965
     22 N         138.4431  140.7161  157.0148 N.ar    1  UNL1       -0.3059
     23 C         138.0602  141.6730  155.9250 C.3     1  UNL1        0.1321
     24 C         139.1968  139.4316  156.8358 C.ar    1  UNL1        0.1786
     25 N         139.3590  138.7973  158.1854 N.ar    1  UNL1       -0.2238
     26 C         143.2826  142.0096  164.9453 C.3     1  UNL1        0.1075
     27 C         143.2558  143.3490  164.2705 C.3     1  UNL1        0.0227
     28 C         143.9710  144.4617  163.5631 C.3     1  UNL1        0.0020
     29 C         142.4943  144.5561  163.8091 C.3     1  UNL1        0.0020
@<TRIPOS>BOND
     1     1     2    1
     2     2     3   ar
     3     3     4    1
     4     3     5   ar
     5     5    12    1
     6    12    14    1
     7    14    15   ar
     8    15    16   ar
     9    16    17   ar
    10    17    20    1
    11    20    21   ar
    12    21    22   ar
    13    22    23    1
    14    22    24   ar
    15    24    25   ar
    16    17    18   ar
    17    18    19   ar
    18     5     6   ar
    19     6     7   ar
    20     7     8   ar
    21     8     9   ar
    22     9    10   ar
    23    10    11   ar
    24    11    26    1
    25    26    27    1
    26    27    28    1
    27    28    29    1
    28     8     2   ar
    29    29    27    1
    30    19    14   ar
    31    11     7   ar
    32    25    20   ar
    33    12    13    1
@<TRIPOS>MOLECULE
*****
 29 33 0 0 0
SMALL
GASTEIGER

@<TRIPOS>ATOM
      1 C         137.8418  138.9482  166.8924 C.3     1  UNL1        0.0351
      2 C         139.2373  139.1605  166.3847 C.ar    1  UNL1        0.0259
      3 C         139.8126  138.2281  165.3601 C.ar    1  UNL1        0.1510
      4 F         138.9924  137.0834  164.8432 F       1  UNL1       -0.2031
      5 C         141.2079  138.4403  164.8525 C.ar    1  UNL1        0.0784
      6 C         142.0281  139.5849  165.3693 C.ar    1  UNL1        0.0357
      7 C         141.4529  140.5173  166.3939 C.ar    1  UNL1        0.0800
      8 C         140.0575  140.3051  166.9016 C.ar    1  UNL1        0.0970
      9 N         139.7607  141.3799  167.9049 N.ar    1  UNL1       -0.2242
     10 C         140.9728  142.2564  168.0173 C.ar    1  UNL1        0.1785
     11 N         142.0186  141.7233  167.0834 N.ar    1  UNL1       -0.3090
     12 N         141.7833  137.5079  163.8278 N.pl3   1  UNL1       -0.2962
     13 H         141.8670  136.5476  164.0280 H       1  UNL1        0.1537
     14 C         142.2310  138.0388  162.4983 C.ar    1  UNL1        0.1322
     15 C         143.6356  138.5353  162.3232 C.ar    1  UNL1        0.0345
     16 C         144.0833  139.0661  160.9936 C.ar    1  UNL1        0.0060
     17 C         143.1263  139.1004  159.8390 C.ar    1  UNL1        0.0384
     18 C         141.7217  138.6040  160.0140 C.ar    1  UNL1        0.1018
     19 N         141.2740  138.0731  161.3437 N.ar    1  UNL1       -0.2290
     20 C         143.5739  139.6313  158.5095 C.ar    1  UNL1        0.1017
     21 C         144.1534  140.9908  158.2527 C.ar    1  UNL1        0.0965
     22 N         144.4584  141.0956  156.7878 N.ar    1  UNL1       -0.3059
     23 C         145.0505  142.2861  156.0934 C.3     1  UNL1        0.1321
     24 C         144.0674  139.8009  156.1392 C.ar    1  UNL1        0.1786
     25 N         143.5207  138.8959  157.2032 N.ar    1  UNL1       -0.2238
     26 C         143.3894  142.2957  166.8756 C.3     1  UNL1        0.1075
     27 C         143.7955  142.7971  165.5215 C.3     1  UNL1        0.0227
     28 C         143.9244  143.9220  164.5377 C.3     1  UNL1        0.0020
     29 C         144.3700  142.5405  164.1598 C.3     1  UNL1        0.0020
@<TRIPOS>BOND
     1     1     2    1
     2     2     3   ar
     3     3     4    1
     4     3     5   ar
     5     5    12    1
     6    12    14    1
     7    14    15   ar
     8    15    16   ar
     9    16    17   ar
    10    17    20    1
    11    20    21   ar
    12    21    22   ar
    13    22    23    1
    14    22    24   ar
    15    24    25   ar
    16    17    18   ar
    17    18    19   ar
    18     5     6   ar
    19     6     7   ar
    20     7     8   ar
    21     8     9   ar
    22     9    10   ar
    23    10    11   ar
    24    11    26    1
    25    26    27    1
    26    27    28    1
    27    28    29    1
    28     8     2   ar
    29    29    27    1
    30    19    14   ar
    31    11     7   ar
    32    25    20   ar
    33    12    13    1
@<TRIPOS>MOLECULE
*****
 29 33 0 0 0
SMALL
GASTEIGER

@<TRIPOS>ATOM
      1 C         138.9917  140.0615  157.4348 C.3     1  UNL1        0.0351
      2 C         139.4610  139.6384  158.7953 C.ar    1  UNL1        0.0259
      3 C         138.4852  139.5490  159.9311 C.ar    1  UNL1        0.1510
      4 F         137.0401  139.8826  159.7063 F       1  UNL1       -0.2031
      5 C         138.9545  139.1259  161.2914 C.ar    1  UNL1        0.0784
      6 C         140.3995  138.7922  161.5162 C.ar    1  UNL1        0.0357
      7 C         141.3753  138.8817  160.3805 C.ar    1  UNL1        0.0800
      8 C         140.9060  139.3048  159.0200 C.ar    1  UNL1        0.0970
      9 N         142.0903  139.3015  158.0994 N.ar    1  UNL1       -0.2242
     10 C         143.2914  138.8763  158.8909 C.ar    1  UNL1        0.1785
     11 N         142.8496  138.6169  160.3007 N.ar    1  UNL1       -0.3090
     12 N         137.9787  139.0364  162.4272 N.pl3   1  UNL1       -0.2962
     13 H         137.0471  138.7678  162.2559 H       1  UNL1        0.1537
     14 C         138.4223  139.3562  163.8239 C.ar    1  UNL1        0.1322
     15 C         138.7110  140.7759  164.2127 C.ar    1  UNL1        0.0345
     16 C         139.1546  141.0958  165.6095 C.ar    1  UNL1        0.0060
     17 C         139.3095  139.9958  166.6175 C.ar    1  UNL1        0.0384
     18 C         139.0208  138.5761  166.2289 C.ar    1  UNL1        0.1018
     19 N         138.5772  138.2563  164.8320 N.ar    1  UNL1       -0.2290
     20 C         139.7531  140.3156  168.0143 C.ar    1  UNL1        0.1017
     21 C         140.8702  141.2417  168.3942 C.ar    1  UNL1        0.0965
     22 N         140.9650  141.2640  169.8911 N.ar    1  UNL1       -0.3059
     23 C         141.9461  142.0591  170.7007 C.3     1  UNL1        0.1321
     24 C         139.9066  140.3516  170.4362 C.ar    1  UNL1        0.1786
     25 N         139.1576  139.7654  169.2763 N.ar    1  UNL1       -0.2238
     26 C         143.7278  138.1709  161.4320 C.3     1  UNL1        0.1075
     27 C         143.9181  139.0563  162.6278 C.3     1  UNL1        0.0227
     28 C         144.5970  139.3483  163.9330 C.3     1  UNL1        0.0020
     29 C         143.5687  140.2979  163.3936 C.3     1  UNL1        0.0020
@<TRIPOS>BOND
     1     1     2    1
     2     2     3   ar
     3     3     4    1
     4     3     5   ar
     5     5    12    1
     6    12    14    1
     7    14    15   ar
     8    15    16   ar
     9    16    17   ar
    10    17    20    1
    11    20    21   ar
    12    21    22   ar
    13    22    23    1
    14    22    24   ar
    15    24    25   ar
    16    17    18   ar
    17    18    19   ar
    18     5     6   ar
    19     6     7   ar
    20     7     8   ar
    21     8     9   ar
    22     9    10   ar
    23    10    11   ar
    24    11    26    1
    25    26    27    1
    26    27    28    1
    27    28    29    1
    28     8     2   ar
    29    29    27    1
    30    19    14   ar
    31    11     7   ar
    32    25    20   ar
    33    12    13    1
