@<TRIPOS>MOLECULE
*****
 30 34 0 0 0
SMALL
GASTEIGER

@<TRIPOS>ATOM
      1 C         145.0706  140.8602  164.2461 C.3     1  UNL1        0.0294
      2 C         145.7202  141.7578  163.2350 C.3     1  UNL1        0.0666
      3 S         144.8785  142.4947  162.2358 S.3     1  UNL1       -0.0756
      4 C         141.5138  144.1236  163.2804 C.ar    1  UNL1        0.2029
      5 N         142.4756  145.2405  163.5592 N.ar    1  UNL1       -0.1250
      6 N         143.8530  144.7663  163.2018 N.ar    1  UNL1       -0.1220
      7 C         143.7426  143.3562  162.7021 C.ar    1  UNL1        0.1933
      8 N         142.2970  142.9590  162.7507 N.ar    1  UNL1       -0.2860
      9 C         141.7334  141.6305  162.3414 C.3     1  UNL1        0.1341
     10 C         139.9431  143.2505  166.0044 C.3     1  UNL1        0.0556
     11 C         139.3077  143.7628  164.7459 C.ar    1  UNL1        0.1001
     12 N         137.8387  143.9638  164.5186 N.ar    1  UNL1       -0.2085
     13 C         137.6528  144.4893  163.1260 C.ar    1  UNL1        0.2849
     14 O         139.0069  144.6131  162.4927 O.2     1  UNL1       -0.4283
     15 C         140.0296  144.1642  163.4939 C.ar    1  UNL1        0.1964
     16 C         144.8496  139.4107  163.9301 C.3     1  UNL1        0.0730
     17 N         143.4549  138.8818  163.7712 N.3     1  UNL1       -0.2724
     18 C         142.9396  138.0900  162.6061 C.3     1  UNL1        0.0725
     19 C         141.4969  137.7708  162.8644 C.3     1  UNL1        0.0227
     20 C         141.1206  138.3653  164.1892 C.3     1  UNL1        0.0350
     21 C         139.9105  137.6787  163.6287 C.3     1  UNL1        0.0101
     22 C         138.7863  137.8488  164.6071 C.3     1  UNL1        0.0265
     23 C         139.3016  138.6406  165.7721 C.ar    1  UNL1       -0.0239
     24 C         138.6436  139.1122  167.0349 C.ar    1  UNL1        0.0251
     25 C         139.4282  139.9030  168.0394 C.ar    1  UNL1        0.1398
     26 F         138.7701  140.3746  169.3022 F       1  UNL1       -0.2042
     27 C         140.8708  140.2222  167.7812 C.ar    1  UNL1        0.0293
     28 C         141.5289  139.7506  166.5184 C.ar    1  UNL1       -0.0022
     29 C         140.7443  138.9598  165.5139 C.ar    1  UNL1       -0.0252
     30 C         142.3307  139.0520  164.7496 C.3     1  UNL1        0.0761
@<TRIPOS>BOND
     1    10    11    1
     2    11    12   ar
     3    12    13   ar
     4    13    14   ar
     5    14    15   ar
     6    15     4    1
     7     4     5   ar
     8     5     6   ar
     9     6     7   ar
    10     7     3    1
    11     3     2    1
    12     2     1    1
    13     1    16    1
    14    16    17    1
    15    17    18    1
    16    18    19    1
    17    19    20    1
    18    20    21    1
    19    21    22    1
    20    22    23    1
    21    23    24   ar
    22    24    25   ar
    23    25    26    1
    24    25    27   ar
    25    27    28   ar
    26    28    29   ar
    27    20    30    1
    28     7     8   ar
    29     8     9    1
    30    15    11   ar
    31     8     4   ar
    32    30    17    1
    33    29    20    1
    34    29    23   ar
@<TRIPOS>MOLECULE
*****
 30 34 0 0 0
SMALL
GASTEIGER

@<TRIPOS>ATOM
      1 C         140.5020  145.5845  160.7782 C.3     1  UNL1        0.0294
      2 C         139.9799  144.6658  159.7135 C.3     1  UNL1        0.0666
      3 S         140.0271  143.1803  159.9156 S.3     1  UNL1       -0.0756
      4 C         138.4817  141.1211  162.8204 C.ar    1  UNL1        0.2029
      5 N         137.3259  141.9982  162.4398 N.ar    1  UNL1       -0.1250
      6 N         137.7641  142.8763  161.3053 N.ar    1  UNL1       -0.1220
      7 C         139.1908  142.5419  160.9848 C.ar    1  UNL1        0.1933
      8 N         139.6343  141.4572  161.9211 N.ar    1  UNL1       -0.2860
      9 C         140.9921  140.8203  161.9526 C.3     1  UNL1        0.1341
     10 C         138.8802  137.9075  162.4162 C.3     1  UNL1        0.0556
     11 C         138.6676  138.6121  163.7232 C.ar    1  UNL1        0.1001
     12 N         138.6009  137.9633  165.0740 N.ar    1  UNL1       -0.2085
     13 C         138.3765  139.0394  166.0946 C.ar    1  UNL1        0.2849
     14 O         138.3045  140.3533  165.3746 O.2     1  UNL1       -0.4283
     15 C         138.4845  140.0892  163.9090 C.ar    1  UNL1        0.1964
     16 C         139.6582  145.8982  161.9781 C.3     1  UNL1        0.0730
     17 N         139.8015  145.0835  163.2294 N.3     1  UNL1       -0.2724
     18 C         138.7671  144.9298  164.3047 C.3     1  UNL1        0.0725
     19 C         139.3307  144.0309  165.3650 C.3     1  UNL1        0.0227
     20 C         140.7135  143.6290  164.9450 C.3     1  UNL1        0.0350
     21 C         140.4225  142.9784  166.2649 C.3     1  UNL1        0.0101
     22 C         141.6255  142.1745  166.6606 C.3     1  UNL1        0.0265
     23 C         142.6599  142.3283  165.5853 C.ar    1  UNL1       -0.0239
     24 C         144.0423  141.7658  165.4346 C.ar    1  UNL1        0.0251
     25 C         144.8610  142.1023  164.2236 C.ar    1  UNL1        0.1398
     26 F         146.2434  141.5398  164.0729 F       1  UNL1       -0.2042
     27 C         144.2974  143.0012  163.1634 C.ar    1  UNL1        0.0293
     28 C         142.9150  143.5636  163.3140 C.ar    1  UNL1       -0.0022
     29 C         142.0963  143.2272  164.5250 C.ar    1  UNL1       -0.0252
     30 C         141.0045  144.2796  163.6251 C.3     1  UNL1        0.0761
@<TRIPOS>BOND
     1    10    11    1
     2    11    12   ar
     3    12    13   ar
     4    13    14   ar
     5    14    15   ar
     6    15     4    1
     7     4     5   ar
     8     5     6   ar
     9     6     7   ar
    10     7     3    1
    11     3     2    1
    12     2     1    1
    13     1    16    1
    14    16    17    1
    15    17    18    1
    16    18    19    1
    17    19    20    1
    18    20    21    1
    19    21    22    1
    20    22    23    1
    21    23    24   ar
    22    24    25   ar
    23    25    26    1
    24    25    27   ar
    25    27    28   ar
    26    28    29   ar
    27    20    30    1
    28     7     8   ar
    29     8     9    1
    30    15    11   ar
    31     8     4   ar
    32    30    17    1
    33    29    20    1
    34    29    23   ar
@<TRIPOS>MOLECULE
*****
 30 34 0 0 0
SMALL
GASTEIGER

@<TRIPOS>ATOM
      1 C         142.9679  145.1493  163.2276 C.3     1  UNL1        0.0294
      2 C         141.5084  145.2517  163.5584 C.3     1  UNL1        0.0666
      3 S         140.4830  145.1417  162.4691 S.3     1  UNL1       -0.0756
      4 C         138.5324  141.7860  162.4650 C.ar    1  UNL1        0.2029
      5 N         137.4073  142.7752  162.5394 N.ar    1  UNL1       -0.1250
      6 N         138.0010  144.1527  162.5500 N.ar    1  UNL1       -0.1220
      7 C         139.4931  144.0147  162.4822 C.ar    1  UNL1        0.1933
      8 N         139.8216  142.5521  162.4296 N.ar    1  UNL1       -0.2860
      9 C         141.1975  141.9595  162.3549 C.3     1  UNL1        0.1341
     10 C         139.2953  139.7339  164.8850 C.3     1  UNL1        0.0556
     11 C         138.7435  139.3496  163.5442 C.ar    1  UNL1        0.1001
     12 N         138.4455  137.9546  163.0803 N.ar    1  UNL1       -0.2085
     13 C         137.9106  138.0357  161.6812 C.ar    1  UNL1        0.2849
     14 O         137.8781  139.4808  161.2804 O.2     1  UNL1       -0.4283
     15 C         138.3928  140.2928  162.4318 C.ar    1  UNL1        0.1964
     16 C         143.9267  144.5826  164.2323 C.3     1  UNL1        0.0730
     17 N         143.8719  143.1250  164.5823 N.3     1  UNL1       -0.2724
     18 C         144.6838  142.0349  163.9481 C.3     1  UNL1        0.0725
     19 C         144.3091  140.7378  164.6018 C.3     1  UNL1        0.0227
     20 C         143.2656  141.0264  165.6400 C.3     1  UNL1        0.0350
     21 C         143.5359  139.5510  165.6520 C.3     1  UNL1        0.0101
     22 C         142.6594  138.9277  166.6977 C.3     1  UNL1        0.0265
     23 C         141.8476  140.0179  167.3318 C.ar    1  UNL1       -0.0239
     24 C         140.8155  139.9972  168.4201 C.ar    1  UNL1        0.0251
     25 C         140.1580  141.2735  168.8547 C.ar    1  UNL1        0.1398
     26 F         139.1259  141.2527  169.9430 F       1  UNL1       -0.2042
     27 C         140.5326  142.5705  168.2011 C.ar    1  UNL1        0.0293
     28 C         141.5647  142.5912  167.1128 C.ar    1  UNL1       -0.0022
     29 C         142.2222  141.3150  166.6782 C.ar    1  UNL1       -0.0252
     30 C         142.9954  142.5018  165.6280 C.3     1  UNL1        0.0761
@<TRIPOS>BOND
     1    10    11    1
     2    11    12   ar
     3    12    13   ar
     4    13    14   ar
     5    14    15   ar
     6    15     4    1
     7     4     5   ar
     8     5     6   ar
     9     6     7   ar
    10     7     3    1
    11     3     2    1
    12     2     1    1
    13     1    16    1
    14    16    17    1
    15    17    18    1
    16    18    19    1
    17    19    20    1
    18    20    21    1
    19    21    22    1
    20    22    23    1
    21    23    24   ar
    22    24    25   ar
    23    25    26    1
    24    25    27   ar
    25    27    28   ar
    26    28    29   ar
    27    20    30    1
    28     7     8   ar
    29     8     9    1
    30    15    11   ar
    31     8     4   ar
    32    30    17    1
    33    29    20    1
    34    29    23   ar
@<TRIPOS>MOLECULE
*****
 30 34 0 0 0
SMALL
GASTEIGER

@<TRIPOS>ATOM
      1 C         139.0255  143.7737  162.0155 C.3     1  UNL1        0.0294
      2 C         138.2952  142.6388  162.6702 C.3     1  UNL1        0.0666
      3 S         138.0538  142.6569  164.1505 S.3     1  UNL1       -0.0756
      4 C         139.8234  140.2940  166.6706 C.ar    1  UNL1        0.2029
      5 N         138.8919  139.3398  165.9836 N.ar    1  UNL1       -0.1250
      6 N         138.1157  140.1089  164.9559 N.ar    1  UNL1       -0.1220
      7 C         138.5674  141.5383  165.0078 C.ar    1  UNL1        0.1933
      8 N         139.6228  141.6527  166.0675 N.ar    1  UNL1       -0.2860
      9 C         140.3500  142.9058  166.4560 C.3     1  UNL1        0.1341
     10 C         142.9657  139.5012  166.2865 C.3     1  UNL1        0.0556
     11 C         142.2307  139.5854  167.5914 C.ar    1  UNL1        0.1001
     12 N         142.8110  139.3200  168.9489 N.ar    1  UNL1       -0.2085
     13 C         141.7254  139.5203  169.9644 C.ar    1  UNL1        0.2849
     14 O         140.4741  139.9095  169.2346 O.2     1  UNL1       -0.4283
     15 C         140.7864  139.9498  167.7680 C.ar    1  UNL1        0.1964
     16 C         139.8113  144.7411  162.8502 C.3     1  UNL1        0.0730
     17 N         141.2224  144.4185  163.2435 N.3     1  UNL1       -0.2724
     18 C         142.2043  145.3686  163.8625 C.3     1  UNL1        0.0725
     19 C         143.4881  144.6264  164.0884 C.3     1  UNL1        0.0227
     20 C         143.2996  143.2176  163.6090 C.3     1  UNL1        0.0350
     21 C         144.6999  143.3461  164.1312 C.3     1  UNL1        0.0101
     22 C         145.3768  142.0167  163.9745 C.3     1  UNL1        0.0265
     23 C         144.3949  141.0667  163.3556 C.ar    1  UNL1       -0.0239
     24 C         144.5038  139.6216  162.9685 C.ar    1  UNL1        0.0251
     25 C         143.3291  138.9187  162.3554 C.ar    1  UNL1        0.1398
     26 F         143.4381  137.4736  161.9683 F       1  UNL1       -0.2042
     27 C         142.0453  139.6608  162.1295 C.ar    1  UNL1        0.0293
     28 C         141.9363  141.1059  162.5166 C.ar    1  UNL1       -0.0022
     29 C         143.1111  141.8088  163.1297 C.ar    1  UNL1       -0.0252
     30 C         141.8993  143.0891  163.0868 C.3     1  UNL1        0.0761
@<TRIPOS>BOND
     1    10    11    1
     2    11    12   ar
     3    12    13   ar
     4    13    14   ar
     5    14    15   ar
     6    15     4    1
     7     4     5   ar
     8     5     6   ar
     9     6     7   ar
    10     7     3    1
    11     3     2    1
    12     2     1    1
    13     1    16    1
    14    16    17    1
    15    17    18    1
    16    18    19    1
    17    19    20    1
    18    20    21    1
    19    21    22    1
    20    22    23    1
    21    23    24   ar
    22    24    25   ar
    23    25    26    1
    24    25    27   ar
    25    27    28   ar
    26    28    29   ar
    27    20    30    1
    28     7     8   ar
    29     8     9    1
    30    15    11   ar
    31     8     4   ar
    32    30    17    1
    33    29    20    1
    34    29    23   ar
@<TRIPOS>MOLECULE
*****
 30 34 0 0 0
SMALL
GASTEIGER

@<TRIPOS>ATOM
      1 C         139.3723  145.0052  163.1155 C.3     1  UNL1        0.0294
      2 C         139.8994  145.8561  161.9982 C.3     1  UNL1        0.0666
      3 S         140.8370  145.2680  160.9858 S.3     1  UNL1       -0.0756
      4 C         142.9565  142.1290  161.8346 C.ar    1  UNL1        0.2029
      5 N         143.8751  143.2281  162.2797 N.ar    1  UNL1       -0.1250
      6 N         143.1929  144.5378  162.0160 N.ar    1  UNL1       -0.1220
      7 C         141.8527  144.2481  161.4078 C.ar    1  UNL1        0.1933
      8 N         141.7065  142.7594  161.2957 N.ar    1  UNL1       -0.2860
      9 C         140.5189  142.0293  160.7419 C.3     1  UNL1        0.1341
     10 C         142.5364  140.2350  164.4587 C.3     1  UNL1        0.0556
     11 C         143.0452  139.7873  163.1205 C.ar    1  UNL1        0.1001
     12 N         143.4502  138.3905  162.7535 N.ar    1  UNL1       -0.2085
     13 C         143.8936  138.3977  161.3206 C.ar    1  UNL1        0.2849
     14 O         143.7626  139.7991  160.8019 O.2     1  UNL1       -0.4283
     15 C         143.2383  140.6579  161.9144 C.ar    1  UNL1        0.1964
     16 C         138.1744  144.1308  162.8915 C.3     1  UNL1        0.0730
     17 N         138.1532  142.7335  163.4368 N.3     1  UNL1       -0.2724
     18 C         137.4507  141.5585  162.8239 C.3     1  UNL1        0.0725
     19 C         137.6942  140.3648  163.6990 C.3     1  UNL1        0.0227
     20 C         138.5472  140.8021  164.8528 C.3     1  UNL1        0.0350
     21 C         138.2635  139.3381  165.0148 C.3     1  UNL1        0.0101
     22 C         138.9412  138.8707  166.2687 C.3     1  UNL1        0.0265
     23 C         139.6436  140.0458  166.8816 C.ar    1  UNL1       -0.0239
     24 C         140.4736  140.1831  168.1235 C.ar    1  UNL1        0.0251
     25 C         141.0601  141.5141  168.4903 C.ar    1  UNL1        0.1398
     26 F         141.8900  141.6514  169.7322 F       1  UNL1       -0.2042
     27 C         140.8166  142.7077  167.6152 C.ar    1  UNL1        0.0293
     28 C         139.9867  142.5704  166.3733 C.ar    1  UNL1       -0.0022
     29 C         139.4002  141.2395  166.0065 C.ar    1  UNL1       -0.0252
     30 C         138.8309  142.2661  164.6907 C.3     1  UNL1        0.0761
@<TRIPOS>BOND
     1    10    11    1
     2    11    12   ar
     3    12    13   ar
     4    13    14   ar
     5    14    15   ar
     6    15     4    1
     7     4     5   ar
     8     5     6   ar
     9     6     7   ar
    10     7     3    1
    11     3     2    1
    12     2     1    1
    13     1    16    1
    14    16    17    1
    15    17    18    1
    16    18    19    1
    17    19    20    1
    18    20    21    1
    19    21    22    1
    20    22    23    1
    21    23    24   ar
    22    24    25   ar
    23    25    26    1
    24    25    27   ar
    25    27    28   ar
    26    28    29   ar
    27    20    30    1
    28     7     8   ar
    29     8     9    1
    30    15    11   ar
    31     8     4   ar
    32    30    17    1
    33    29    20    1
    34    29    23   ar
@<TRIPOS>MOLECULE
*****
 30 34 0 0 0
SMALL
GASTEIGER

@<TRIPOS>ATOM
      1 C         143.8786  140.1524  164.7838 C.3     1  UNL1        0.0294
      2 C         145.1384  140.3213  163.9872 C.3     1  UNL1        0.0666
      3 S         145.5879  141.6921  163.5765 S.3     1  UNL1       -0.0756
      4 C         142.9236  144.0498  162.0244 C.ar    1  UNL1        0.2029
      5 N         143.1015  144.6661  163.3803 N.ar    1  UNL1       -0.1250
      6 N         144.1212  143.8580  164.1267 N.ar    1  UNL1       -0.1220
      7 C         144.5735  142.7421  163.2321 C.ar    1  UNL1        0.1933
      8 N         143.8334  142.8606  161.9328 N.ar    1  UNL1       -0.2860
      9 C         143.9777  141.9499  160.7497 C.3     1  UNL1        0.1341
     10 C         139.9962  145.4161  162.4863 C.3     1  UNL1        0.0556
     11 C         140.6528  145.1650  161.1612 C.ar    1  UNL1        0.1001
     12 N         140.0792  145.4978  159.8158 N.ar    1  UNL1       -0.2085
     13 C         141.0702  145.0755  158.7720 C.ar    1  UNL1        0.2849
     14 O         142.2563  144.4816  159.4723 O.2     1  UNL1       -0.4283
     15 C         141.9984  144.5369  160.9489 C.ar    1  UNL1        0.1964
     16 C         142.9634  138.9973  164.5040 C.3     1  UNL1        0.0730
     17 N         141.5852  139.2455  163.9667 N.3     1  UNL1       -0.2724
     18 C         140.8229  138.3420  163.0433 C.3     1  UNL1        0.0725
     19 C         139.4938  138.9790  162.7644 C.3     1  UNL1        0.0227
     20 C         139.4347  140.2761  163.5153 C.3     1  UNL1        0.0350
     21 C         138.1421  140.1114  162.7722 C.3     1  UNL1        0.0101
     22 C         137.2842  141.3067  163.0639 C.3     1  UNL1        0.0265
     23 C         138.0465  142.2102  163.9872 C.ar    1  UNL1       -0.0239
     24 C         137.7021  143.5306  164.6101 C.ar    1  UNL1        0.0251
     25 C         138.6868  144.2141  165.5118 C.ar    1  UNL1        0.1398
     26 F         138.3424  145.5345  166.1346 F       1  UNL1       -0.2042
     27 C         140.0158  143.5772  165.7908 C.ar    1  UNL1        0.0293
     28 C         140.3602  142.2568  165.1680 C.ar    1  UNL1       -0.0022
     29 C         139.3755  141.5733  164.2662 C.ar    1  UNL1       -0.0252
     30 C         140.7272  140.4409  164.2584 C.3     1  UNL1        0.0761
@<TRIPOS>BOND
     1    10    11    1
     2    11    12   ar
     3    12    13   ar
     4    13    14   ar
     5    14    15   ar
     6    15     4    1
     7     4     5   ar
     8     5     6   ar
     9     6     7   ar
    10     7     3    1
    11     3     2    1
    12     2     1    1
    13     1    16    1
    14    16    17    1
    15    17    18    1
    16    18    19    1
    17    19    20    1
    18    20    21    1
    19    21    22    1
    20    22    23    1
    21    23    24   ar
    22    24    25   ar
    23    25    26    1
    24    25    27   ar
    25    27    28   ar
    26    28    29   ar
    27    20    30    1
    28     7     8   ar
    29     8     9    1
    30    15    11   ar
    31     8     4   ar
    32    30    17    1
    33    29    20    1
    34    29    23   ar
@<TRIPOS>MOLECULE
*****
 30 34 0 0 0
SMALL
GASTEIGER

@<TRIPOS>ATOM
      1 C         142.5997  138.4033  165.1019 C.3     1  UNL1        0.0294
      2 C         141.3288  137.7147  164.7009 C.3     1  UNL1        0.0666
      3 S         141.0927  137.3534  163.2644 S.3     1  UNL1       -0.0756
      4 C         138.7649  139.3834  160.9135 C.ar    1  UNL1        0.2029
      5 N         137.7613  138.6324  161.7374 N.ar    1  UNL1       -0.1250
      6 N         138.5112  137.7806  162.7183 N.ar    1  UNL1       -0.1220
      7 C         139.9782  138.0051  162.5006 C.ar    1  UNL1        0.1933
      8 N         140.1351  138.9956  161.3852 N.ar    1  UNL1       -0.2860
      9 C         141.4340  139.5085  160.8376 C.3     1  UNL1        0.1341
     10 C         139.0971  142.6265  161.0590 C.3     1  UNL1        0.0556
     11 C         138.6058  141.8427  159.8783 C.ar    1  UNL1        0.1001
     12 N         138.1810  142.4118  158.5571 N.ar    1  UNL1       -0.2085
     13 C         137.7657  141.2729  157.6737 C.ar    1  UNL1        0.2849
     14 O         137.9339  139.9998  158.4488 O.2     1  UNL1       -0.4283
     15 C         138.4531  140.3520  159.8114 C.ar    1  UNL1        0.1964
     16 C         143.4851  139.0125  164.0556 C.3     1  UNL1        0.0730
     17 N         143.5584  140.5037  163.9107 N.3     1  UNL1       -0.2724
     18 C         144.7829  141.2965  163.5614 C.3     1  UNL1        0.0725
     19 C         144.4012  142.7467  163.5244 C.3     1  UNL1        0.0227
     20 C         142.9409  142.8501  163.8509 C.3     1  UNL1        0.0350
     21 C         143.4618  144.2364  163.6121 C.3     1  UNL1        0.0101
     22 C         142.3233  145.1965  163.7911 C.3     1  UNL1        0.0265
     23 C         141.0989  144.4037  164.1403 C.ar    1  UNL1       -0.0239
     24 C         139.6856  144.8149  164.4295 C.ar    1  UNL1        0.0251
     25 C         138.6540  143.7760  164.7557 C.ar    1  UNL1        0.1398
     26 F         137.2408  144.1872  165.0449 F       1  UNL1       -0.2042
     27 C         139.0356  142.3259  164.7927 C.ar    1  UNL1        0.0293
     28 C         140.4489  141.9147  164.5035 C.ar    1  UNL1       -0.0022
     29 C         141.4805  142.9536  164.1773 C.ar    1  UNL1       -0.0252
     30 C         142.4199  141.4639  164.0896 C.3     1  UNL1        0.0761
@<TRIPOS>BOND
     1    10    11    1
     2    11    12   ar
     3    12    13   ar
     4    13    14   ar
     5    14    15   ar
     6    15     4    1
     7     4     5   ar
     8     5     6   ar
     9     6     7   ar
    10     7     3    1
    11     3     2    1
    12     2     1    1
    13     1    16    1
    14    16    17    1
    15    17    18    1
    16    18    19    1
    17    19    20    1
    18    20    21    1
    19    21    22    1
    20    22    23    1
    21    23    24   ar
    22    24    25   ar
    23    25    26    1
    24    25    27   ar
    25    27    28   ar
    26    28    29   ar
    27    20    30    1
    28     7     8   ar
    29     8     9    1
    30    15    11   ar
    31     8     4   ar
    32    30    17    1
    33    29    20    1
    34    29    23   ar
@<TRIPOS>MOLECULE
*****
 30 34 0 0 0
SMALL
GASTEIGER

@<TRIPOS>ATOM
      1 C         144.0558  142.9980  161.4952 C.3     1  UNL1        0.0294
      2 C         144.4099  141.5802  161.8334 C.3     1  UNL1        0.0666
      3 S         145.0235  141.2572  163.1635 S.3     1  UNL1       -0.0756
      4 C         143.0225  139.7036  166.1042 C.ar    1  UNL1        0.2029
      5 N         143.2230  138.5050  165.2248 N.ar    1  UNL1       -0.1250
      6 N         143.9970  138.9411  164.0162 N.ar    1  UNL1       -0.1220
      7 C         144.2748  140.4092  164.1486 C.ar    1  UNL1        0.1933
      8 N         143.6726  140.8805  165.4390 N.ar    1  UNL1       -0.2860
      9 C         143.7132  142.2824  165.9709 C.3     1  UNL1        0.1341
     10 C         139.7893  139.8783  166.5112 C.3     1  UNL1        0.0556
     11 C         140.8128  139.8023  167.6051 C.ar    1  UNL1        0.1001
     12 N         140.5300  139.7933  169.0782 N.ar    1  UNL1       -0.2085
     13 C         141.8412  139.7074  169.8015 C.ar    1  UNL1        0.2849
     14 O         142.9345  139.6634  168.7755 O.2     1  UNL1       -0.4283
     15 C         142.2989  139.7220  167.4181 C.ar    1  UNL1        0.1964
     16 C         143.7202  143.9685  162.5886 C.3     1  UNL1        0.0730
     17 N         142.3115  144.0716  163.0936 N.3     1  UNL1       -0.2724
     18 C         141.6643  145.3024  163.6560 C.3     1  UNL1        0.0725
     19 C         140.2555  144.9533  164.0348 C.3     1  UNL1        0.0227
     20 C         140.0320  143.5069  163.7065 C.3     1  UNL1        0.0350
     21 C         138.7613  144.0518  164.2882 C.3     1  UNL1        0.0101
     22 C         137.7525  142.9422  164.3194 C.3     1  UNL1        0.0265
     23 C         138.3998  141.7115  163.7570 C.ar    1  UNL1       -0.0239
     24 C         137.8883  140.3180  163.5408 C.ar    1  UNL1        0.0251
     25 C         138.7856  139.2736  162.9459 C.ar    1  UNL1        0.1398
     26 F         138.2741  137.8801  162.7297 F       1  UNL1       -0.2042
     27 C         140.1943  139.6225  162.5671 C.ar    1  UNL1        0.0293
     28 C         140.7058  141.0160  162.7832 C.ar    1  UNL1       -0.0022
     29 C         139.8085  142.0604  163.3782 C.ar    1  UNL1       -0.0252
     30 C         141.3027  142.9619  163.1248 C.3     1  UNL1        0.0761
@<TRIPOS>BOND
     1    10    11    1
     2    11    12   ar
     3    12    13   ar
     4    13    14   ar
     5    14    15   ar
     6    15     4    1
     7     4     5   ar
     8     5     6   ar
     9     6     7   ar
    10     7     3    1
    11     3     2    1
    12     2     1    1
    13     1    16    1
    14    16    17    1
    15    17    18    1
    16    18    19    1
    17    19    20    1
    18    20    21    1
    19    21    22    1
    20    22    23    1
    21    23    24   ar
    22    24    25   ar
    23    25    26    1
    24    25    27   ar
    25    27    28   ar
    26    28    29   ar
    27    20    30    1
    28     7     8   ar
    29     8     9    1
    30    15    11   ar
    31     8     4   ar
    32    30    17    1
    33    29    20    1
    34    29    23   ar
@<TRIPOS>MOLECULE
*****
 30 34 0 0 0
SMALL
GASTEIGER

@<TRIPOS>ATOM
      1 C         139.4060  144.9747  163.2376 C.3     1  UNL1        0.0294
      2 C         140.2979  145.6225  162.2202 C.3     1  UNL1        0.0666
      3 S         141.3705  144.8209  161.5444 S.3     1  UNL1       -0.0756
      4 C         142.0876  141.2560  162.9018 C.ar    1  UNL1        0.2029
      5 N         141.3330  140.9410  161.6443 N.ar    1  UNL1       -0.1250
      6 N         140.9725  142.2381  160.9828 N.ar    1  UNL1       -0.1220
      7 C         141.5044  143.3547  161.8314 C.ar    1  UNL1        0.1933
      8 N         142.1935  142.7478  163.0174 N.ar    1  UNL1       -0.2860
      9 C         142.8699  143.5005  164.1247 C.3     1  UNL1        0.1341
     10 C         145.2404  140.8178  163.6213 C.3     1  UNL1        0.0556
     11 C         144.0886  140.0535  164.2038 C.ar    1  UNL1        0.1001
     12 N         144.1838  138.9537  165.2194 N.ar    1  UNL1       -0.2085
     13 C         142.7934  138.4754  165.5163 C.ar    1  UNL1        0.2849
     14 O         141.8390  139.2796  164.6843 O.2     1  UNL1       -0.4283
     15 C         142.6395  140.2549  163.8731 C.ar    1  UNL1        0.1964
     16 C         138.3216  144.0372  162.7960 C.3     1  UNL1        0.0730
     17 N         138.2408  142.6568  163.3775 N.3     1  UNL1       -0.2724
     18 C         137.5362  141.4823  162.7659 C.3     1  UNL1        0.0725
     19 C         137.7104  140.3083  163.6831 C.3     1  UNL1        0.0227
     20 C         138.5226  140.7572  164.8615 C.3     1  UNL1        0.0350
     21 C         138.1948  139.3057  165.0504 C.3     1  UNL1        0.0101
     22 C         138.8044  138.8575  166.3456 C.3     1  UNL1        0.0265
     23 C         139.5090  140.0320  166.9571 C.ar    1  UNL1       -0.0239
     24 C         140.2868  140.1841  168.2307 C.ar    1  UNL1        0.0251
     25 C         140.8903  141.5103  168.5871 C.ar    1  UNL1        0.1398
     26 F         141.6680  141.6624  169.8607 F       1  UNL1       -0.2042
     27 C         140.7162  142.6843  167.6700 C.ar    1  UNL1        0.0293
     28 C         139.9384  142.5322  166.3964 C.ar    1  UNL1       -0.0022
     29 C         139.3349  141.2060  166.0400 C.ar    1  UNL1       -0.0252
     30 C         138.8505  142.2087  164.6727 C.3     1  UNL1        0.0761
@<TRIPOS>BOND
     1    10    11    1
     2    11    12   ar
     3    12    13   ar
     4    13    14   ar
     5    14    15   ar
     6    15     4    1
     7     4     5   ar
     8     5     6   ar
     9     6     7   ar
    10     7     3    1
    11     3     2    1
    12     2     1    1
    13     1    16    1
    14    16    17    1
    15    17    18    1
    16    18    19    1
    17    19    20    1
    18    20    21    1
    19    21    22    1
    20    22    23    1
    21    23    24   ar
    22    24    25   ar
    23    25    26    1
    24    25    27   ar
    25    27    28   ar
    26    28    29   ar
    27    20    30    1
    28     7     8   ar
    29     8     9    1
    30    15    11   ar
    31     8     4   ar
    32    30    17    1
    33    29    20    1
    34    29    23   ar
