@<TRIPOS>MOLECULE
*****
 24 27 0 0 0
SMALL
GASTEIGER

@<TRIPOS>ATOM
      1 C         138.4764  139.0234  165.3906 C.ar    1  UNL1        0.0536
      2 C         138.0820  140.2103  164.5627 C.ar    1  UNL1        0.0042
      3 C         138.0872  140.1156  163.0657 C.ar    1  UNL1       -0.0028
      4 C         138.4868  138.8339  162.3967 C.ar    1  UNL1       -0.0061
      5 C         138.8812  137.6470  163.2246 C.ar    1  UNL1       -0.0028
      6 C         138.8760  137.7417  164.7216 C.ar    1  UNL1        0.0042
      7 O         137.4001  138.4278  167.6791 O.2     1  UNL1       -0.2699
      8 C         138.4712  139.1180  166.8877 C.2     1  UNL1        0.2491
      9 N         139.5370  139.9030  167.5932 N.am    1  UNL1       -0.2732
     10 C         140.6080  140.5933  166.8018 C.3     1  UNL1        0.1110
     11 C         141.6739  141.3782  167.5075 C.3     1  UNL1        0.0939
     12 N         141.6687  141.4729  169.0044 N.3     1  UNL1       -0.2711
     13 C         140.5976  140.7826  169.7958 C.3     1  UNL1        0.0939
     14 C         139.5318  139.9976  169.0903 C.3     1  UNL1        0.1110
     15 C         142.7345  142.2578  169.7100 C.3     1  UNL1        0.0577
     16 C         144.1850  142.5579  169.9467 C.3     1  UNL1        0.0173
     17 C         143.1301  143.3172  170.6953 C.3     1  UNL1        0.0173
     18 C         138.4920  138.7393  160.8996 C.3     1  UNL1        0.0993
     19 N         139.7842  138.8478  160.1458 N.3     1  UNL1       -0.2646
     20 C         141.0072  139.3862  160.8273 C.3     1  UNL1        0.1049
     21 C         142.2994  139.4947  160.0733 C.3     1  UNL1        0.1595
     22 O         142.3686  139.0648  158.6379 O.3     1  UNL1       -0.3508
     23 C         141.1456  138.5265  157.9564 C.3     1  UNL1        0.1595
     24 C         139.8534  138.4179  158.7103 C.3     1  UNL1        0.1049
@<TRIPOS>BOND
     1     7     8    2
     2     8     1    1
     3     1     2   ar
     4     2     3   ar
     5     3     4   ar
     6     4    18    1
     7    18    19    1
     8    19    20    1
     9    20    21    1
    10    21    22    1
    11    22    23    1
    12    23    24    1
    13     4     5   ar
    14     5     6   ar
    15     8     9   am
    16     9    10    1
    17    10    11    1
    18    11    12    1
    19    12    15    1
    20    15    16    1
    21    16    17    1
    22    12    13    1
    23    13    14    1
    24     6     1   ar
    25    14     9    1
    26    24    19    1
    27    17    15    1
@<TRIPOS>MOLECULE
*****
 24 27 0 0 0
SMALL
GASTEIGER

@<TRIPOS>ATOM
      1 C         139.8425  138.6136  164.7264 C.ar    1  UNL1        0.0536
      2 C         138.5373  138.3147  165.4022 C.ar    1  UNL1        0.0042
      3 C         138.2680  138.8428  166.7801 C.ar    1  UNL1       -0.0028
      4 C         139.3040  139.6698  167.4821 C.ar    1  UNL1       -0.0061
      5 C         140.6093  139.9687  166.8063 C.ar    1  UNL1       -0.0028
      6 C         140.8785  139.4406  165.4284 C.ar    1  UNL1        0.0042
      7 O         140.8974  136.8202  163.1705 O.2     1  UNL1       -0.2699
      8 C         140.1119  138.0856  163.3484 C.2     1  UNL1        0.2491
      9 N         139.5956  138.8229  162.1485 N.am    1  UNL1       -0.2732
     10 C         138.8101  140.0883  162.3265 C.3     1  UNL1        0.1110
     11 C         138.2938  140.8256  161.1265 C.3     1  UNL1        0.0939
     12 N         138.5632  140.2975  159.7486 N.3     1  UNL1       -0.2711
     13 C         139.3487  139.0321  159.5706 C.3     1  UNL1        0.0939
     14 C         139.8650  138.2948  160.7706 C.3     1  UNL1        0.1110
     15 C         138.0469  141.0348  158.5487 C.3     1  UNL1        0.0577
     16 C         138.0003  142.2758  157.7075 C.3     1  UNL1        0.0173
     17 C         137.1995  141.0709  157.3116 C.3     1  UNL1        0.0173
     18 C         139.0347  140.1978  168.8601 C.3     1  UNL1        0.0993
     19 N         140.0612  141.0442  169.5528 N.3     1  UNL1       -0.2646
     20 C         140.9718  140.4318  170.5755 C.3     1  UNL1        0.1049
     21 C         141.9984  141.2783  171.2682 C.3     1  UNL1        0.1595
     22 O         142.1142  142.7369  170.9384 O.3     1  UNL1       -0.3508
     23 C         141.2036  143.3492  169.9157 C.3     1  UNL1        0.1595
     24 C         140.1771  142.5029  169.2230 C.3     1  UNL1        0.1049
@<TRIPOS>BOND
     1     7     8    2
     2     8     1    1
     3     1     2   ar
     4     2     3   ar
     5     3     4   ar
     6     4    18    1
     7    18    19    1
     8    19    20    1
     9    20    21    1
    10    21    22    1
    11    22    23    1
    12    23    24    1
    13     4     5   ar
    14     5     6   ar
    15     8     9   am
    16     9    10    1
    17    10    11    1
    18    11    12    1
    19    12    15    1
    20    15    16    1
    21    16    17    1
    22    12    13    1
    23    13    14    1
    24     6     1   ar
    25    14     9    1
    26    24    19    1
    27    17    15    1
@<TRIPOS>MOLECULE
*****
 24 27 0 0 0
SMALL
GASTEIGER

@<TRIPOS>ATOM
      1 C         138.6704  140.7425  164.3784 C.ar    1  UNL1        0.0536
      2 C         138.1642  139.6629  165.2884 C.ar    1  UNL1        0.0042
      3 C         138.8116  139.4426  166.6234 C.ar    1  UNL1       -0.0028
      4 C         139.9652  140.3019  167.0485 C.ar    1  UNL1       -0.0061
      5 C         140.4714  141.3816  166.1385 C.ar    1  UNL1       -0.0028
      6 C         139.8240  141.6019  164.8035 C.ar    1  UNL1        0.0042
      7 O         136.8276  141.8617  162.9287 O.2     1  UNL1       -0.2699
      8 C         138.0230  140.9629  163.0434 C.2     1  UNL1        0.2491
      9 N         138.5710  140.2845  161.8230 N.am    1  UNL1       -0.2732
     10 C         139.7664  139.3857  161.9376 C.3     1  UNL1        0.1110
     11 C         140.3144  138.7072  160.7171 C.3     1  UNL1        0.0939
     12 N         139.6670  138.9276  159.3821 N.3     1  UNL1       -0.2711
     13 C         138.4716  139.8264  159.2675 C.3     1  UNL1        0.0939
     14 C         137.9236  140.5048  160.4879 C.3     1  UNL1        0.1110
     15 C         140.2150  138.2491  158.1618 C.3     1  UNL1        0.0577
     16 C         139.9928  137.5689  156.8435 C.3     1  UNL1        0.0173
     17 C         141.3864  137.7542  157.3662 C.3     1  UNL1        0.0173
     18 C         140.6126  140.0816  168.3835 C.3     1  UNL1        0.0993
     19 N         141.4050  141.1826  169.0237 N.3     1  UNL1       -0.2646
     20 C         140.7096  142.4136  169.5246 C.3     1  UNL1        0.1049
     21 C         141.5021  143.5147  170.1648 C.3     1  UNL1        0.1595
     22 O         142.9899  143.3847  170.3040 O.3     1  UNL1       -0.3508
     23 C         143.6853  142.1536  169.8031 C.3     1  UNL1        0.1595
     24 C         142.8929  141.0526  169.1629 C.3     1  UNL1        0.1049
@<TRIPOS>BOND
     1     7     8    2
     2     8     1    1
     3     1     2   ar
     4     2     3   ar
     5     3     4   ar
     6     4    18    1
     7    18    19    1
     8    19    20    1
     9    20    21    1
    10    21    22    1
    11    22    23    1
    12    23    24    1
    13     4     5   ar
    14     5     6   ar
    15     8     9   am
    16     9    10    1
    17    10    11    1
    18    11    12    1
    19    12    15    1
    20    15    16    1
    21    16    17    1
    22    12    13    1
    23    13    14    1
    24     6     1   ar
    25    14     9    1
    26    24    19    1
    27    17    15    1
@<TRIPOS>MOLECULE
*****
 24 27 0 0 0
SMALL
GASTEIGER

@<TRIPOS>ATOM
      1 C         143.5438  138.8698  164.8127 C.ar    1  UNL1        0.0536
      2 C         142.5337  138.1781  163.9460 C.ar    1  UNL1        0.0042
      3 C         142.5854  138.3433  162.4561 C.ar    1  UNL1       -0.0028
      4 C         143.6472  139.2001  161.8328 C.ar    1  UNL1       -0.0061
      5 C         144.6574  139.8917  162.6996 C.ar    1  UNL1       -0.0028
      6 C         144.6057  139.7265  164.1895 C.ar    1  UNL1        0.0042
      7 O         144.1642  137.5306  166.9510 O.2     1  UNL1       -0.2699
      8 C         143.4922  138.7046  166.3028 C.2     1  UNL1        0.2491
      9 N         142.7685  139.7134  167.1445 N.am    1  UNL1       -0.2732
     10 C         142.0965  140.8874  166.4963 C.3     1  UNL1        0.1110
     11 C         141.3728  141.8963  167.3382 C.3     1  UNL1        0.0939
     12 N         141.3212  141.7311  168.8281 N.3     1  UNL1       -0.2711
     13 C         141.9932  140.5571  169.4763 C.3     1  UNL1        0.0939
     14 C         142.7169  139.5483  168.6346 C.3     1  UNL1        0.1110
     15 C         140.5976  142.7399  169.6699 C.3     1  UNL1        0.0577
     16 C         140.3211  144.1682  170.0352 C.3     1  UNL1        0.0173
     17 C         139.6207  143.0590  170.7625 C.3     1  UNL1        0.0173
     18 C         143.6989  139.3652  160.3428 C.3     1  UNL1        0.0993
     19 N         143.5571  140.7287  159.7340 N.3     1  UNL1       -0.2646
     20 C         142.7000  141.7628  160.4018 C.3     1  UNL1        0.1049
     21 C         142.5582  143.1264  159.7929 C.3     1  UNL1        0.1595
     22 O         143.2735  143.4558  158.5162 O.3     1  UNL1       -0.3508
     23 C         144.1306  142.4216  157.8484 C.3     1  UNL1        0.1595
     24 C         144.2724  141.0581  158.4573 C.3     1  UNL1        0.1049
@<TRIPOS>BOND
     1     7     8    2
     2     8     1    1
     3     1     2   ar
     4     2     3   ar
     5     3     4   ar
     6     4    18    1
     7    18    19    1
     8    19    20    1
     9    20    21    1
    10    21    22    1
    11    22    23    1
    12    23    24    1
    13     4     5   ar
    14     5     6   ar
    15     8     9   am
    16     9    10    1
    17    10    11    1
    18    11    12    1
    19    12    15    1
    20    15    16    1
    21    16    17    1
    22    12    13    1
    23    13    14    1
    24     6     1   ar
    25    14     9    1
    26    24    19    1
    27    17    15    1
@<TRIPOS>MOLECULE
*****
 24 27 0 0 0
SMALL
GASTEIGER

@<TRIPOS>ATOM
      1 C         143.8637  140.1111  164.5383 C.ar    1  UNL1        0.0536
      2 C         144.0978  138.7444  165.1104 C.ar    1  UNL1        0.0042
      3 C         143.6476  138.4284  166.5059 C.ar    1  UNL1       -0.0028
      4 C         142.9634  139.4791  167.3292 C.ar    1  UNL1       -0.0061
      5 C         142.7294  140.8458  166.7571 C.ar    1  UNL1       -0.0028
      6 C         143.1795  141.1618  165.3617 C.ar    1  UNL1        0.0042
      7 O         145.5559  141.2386  162.9210 O.2     1  UNL1       -0.2699
      8 C         144.3139  140.4272  163.1427 C.2     1  UNL1        0.2491
      9 N         143.5221  139.9319  161.9690 N.am    1  UNL1       -0.2732
     10 C         142.2802  139.1205  162.1907 C.3     1  UNL1        0.1110
     11 C         141.4884  138.6251  161.0169 C.3     1  UNL1        0.0939
     12 N         141.9386  138.9412  159.6214 N.3     1  UNL1       -0.2711
     13 C         143.1805  139.7526  159.3997 C.3     1  UNL1        0.0939
     14 C         143.9723  140.2480  160.5734 C.3     1  UNL1        0.1110
     15 C         141.1468  138.4459  158.4477 C.3     1  UNL1        0.0577
     16 C         139.8431  138.3336  157.7145 C.3     1  UNL1        0.0173
     17 C         141.0791  137.7003  157.1479 C.3     1  UNL1        0.0173
     18 C         142.5133  139.1630  168.7248 C.3     1  UNL1        0.0993
     19 N         141.6000  140.1063  169.4500 N.3     1  UNL1       -0.2646
     20 C         142.1662  141.1044  170.4161 C.3     1  UNL1        0.1049
     21 C         141.2529  142.0477  171.1414 C.3     1  UNL1        0.1595
     22 O         139.7734  141.9931  170.9005 O.3     1  UNL1       -0.3508
     23 C         139.2072  140.9951  169.9344 C.3     1  UNL1        0.1595
     24 C         140.1204  140.0517  169.2092 C.3     1  UNL1        0.1049
@<TRIPOS>BOND
     1     7     8    2
     2     8     1    1
     3     1     2   ar
     4     2     3   ar
     5     3     4   ar
     6     4    18    1
     7    18    19    1
     8    19    20    1
     9    20    21    1
    10    21    22    1
    11    22    23    1
    12    23    24    1
    13     4     5   ar
    14     5     6   ar
    15     8     9   am
    16     9    10    1
    17    10    11    1
    18    11    12    1
    19    12    15    1
    20    15    16    1
    21    16    17    1
    22    12    13    1
    23    13    14    1
    24     6     1   ar
    25    14     9    1
    26    24    19    1
    27    17    15    1
@<TRIPOS>MOLECULE
*****
 24 27 0 0 0
SMALL
GASTEIGER

@<TRIPOS>ATOM
      1 C         143.9881  141.0283  164.4176 C.ar    1  UNL1        0.0536
      2 C         143.4637  141.9193  165.5043 C.ar    1  UNL1        0.0042
      3 C         142.9581  141.3230  166.7844 C.ar    1  UNL1       -0.0028
      4 C         142.9769  139.8356  166.9777 C.ar    1  UNL1       -0.0061
      5 C         143.5013  138.9446  165.8910 C.ar    1  UNL1       -0.0028
      6 C         144.0069  139.5409  164.6109 C.ar    1  UNL1        0.0042
      7 O         145.9696  141.7403  162.8954 O.2     1  UNL1       -0.2699
      8 C         144.4938  141.6246  163.1374 C.2     1  UNL1        0.2491
      9 N         143.5236  142.1053  162.0993 N.am    1  UNL1       -0.2732
     10 C         142.0478  141.9896  162.3412 C.3     1  UNL1        0.1110
     11 C         141.0777  142.4703  161.3030 C.3     1  UNL1        0.0939
     12 N         141.5833  143.0666  160.0229 N.3     1  UNL1       -0.2711
     13 C         143.0592  143.1822  159.7810 C.3     1  UNL1        0.0939
     14 C         144.0293  142.7016  160.8191 C.3     1  UNL1        0.1110
     15 C         140.6132  143.5472  158.9848 C.3     1  UNL1        0.0577
     16 C         139.4328  143.2951  158.0943 C.3     1  UNL1        0.0173
     17 C         140.1132  144.6318  158.0772 C.3     1  UNL1        0.0173
     18 C         142.4712  139.2393  168.2579 C.3     1  UNL1        0.0993
     19 N         141.6258  140.0608  169.1855 N.3     1  UNL1       -0.2646
     20 C         140.1408  140.1285  168.9849 C.3     1  UNL1        0.1049
     21 C         139.2954  140.9501  169.9126 C.3     1  UNL1        0.1595
     22 O         139.9351  141.7039  171.0407 O.3     1  UNL1       -0.3508
     23 C         141.4201  141.6362  171.2412 C.3     1  UNL1        0.1595
     24 C         142.2654  140.8147  170.3137 C.3     1  UNL1        0.1049
@<TRIPOS>BOND
     1     7     8    2
     2     8     1    1
     3     1     2   ar
     4     2     3   ar
     5     3     4   ar
     6     4    18    1
     7    18    19    1
     8    19    20    1
     9    20    21    1
    10    21    22    1
    11    22    23    1
    12    23    24    1
    13     4     5   ar
    14     5     6   ar
    15     8     9   am
    16     9    10    1
    17    10    11    1
    18    11    12    1
    19    12    15    1
    20    15    16    1
    21    16    17    1
    22    12    13    1
    23    13    14    1
    24     6     1   ar
    25    14     9    1
    26    24    19    1
    27    17    15    1
@<TRIPOS>MOLECULE
*****
 24 27 0 0 0
SMALL
GASTEIGER

@<TRIPOS>ATOM
      1 C         141.9134  138.7434  164.1903 C.ar    1  UNL1        0.0536
      2 C         140.9287  139.7418  164.7229 C.ar    1  UNL1        0.0042
      3 C         141.1450  140.3628  166.0710 C.ar    1  UNL1       -0.0028
      4 C         142.3459  139.9853  166.8867 C.ar    1  UNL1       -0.0061
      5 C         143.3306  138.9870  166.3541 C.ar    1  UNL1       -0.0028
      6 C         143.1143  138.3660  165.0060 C.ar    1  UNL1        0.0042
      7 O         140.8692  136.8783  162.7135 O.2     1  UNL1       -0.2699
      8 C         141.6971  138.1224  162.8421 C.2     1  UNL1        0.2491
      9 N         142.3088  138.7456  161.6225 N.am    1  UNL1       -0.2732
     10 C         143.1367  139.9898  161.7510 C.3     1  UNL1        0.1110
     11 C         143.7484  140.6130  160.5313 C.3     1  UNL1        0.0939
     12 N         143.5322  139.9920  159.1832 N.3     1  UNL1       -0.2711
     13 C         142.7042  138.7478  159.0547 C.3     1  UNL1        0.0939
     14 C         142.0925  138.1246  160.2743 C.3     1  UNL1        0.1110
     15 C         144.1438  140.6151  157.9636 C.3     1  UNL1        0.0577
     16 C         145.2291  141.4325  157.3279 C.3     1  UNL1        0.0173
     17 C         144.1181  140.8771  156.4869 C.3     1  UNL1        0.0173
     18 C         142.5622  140.6063  168.2349 C.3     1  UNL1        0.0993
     19 N         141.3877  141.0732  169.0427 N.3     1  UNL1       -0.2646
     20 C         140.3428  140.0915  169.4836 C.3     1  UNL1        0.1049
     21 C         139.1683  140.5585  170.2914 C.3     1  UNL1        0.1595
     22 O         139.0387  142.0072  170.6582 O.3     1  UNL1       -0.3508
     23 C         140.0836  142.9889  170.2173 C.3     1  UNL1        0.1595
     24 C         141.2581  142.5220  169.4095 C.3     1  UNL1        0.1049
@<TRIPOS>BOND
     1     7     8    2
     2     8     1    1
     3     1     2   ar
     4     2     3   ar
     5     3     4   ar
     6     4    18    1
     7    18    19    1
     8    19    20    1
     9    20    21    1
    10    21    22    1
    11    22    23    1
    12    23    24    1
    13     4     5   ar
    14     5     6   ar
    15     8     9   am
    16     9    10    1
    17    10    11    1
    18    11    12    1
    19    12    15    1
    20    15    16    1
    21    16    17    1
    22    12    13    1
    23    13    14    1
    24     6     1   ar
    25    14     9    1
    26    24    19    1
    27    17    15    1
@<TRIPOS>MOLECULE
*****
 24 27 0 0 0
SMALL
GASTEIGER

@<TRIPOS>ATOM
      1 C         140.4683  138.8229  164.5738 C.ar    1  UNL1        0.0536
      2 C         141.5157  139.2889  165.5411 C.ar    1  UNL1        0.0042
      3 C         141.1184  139.7502  166.9120 C.ar    1  UNL1       -0.0028
      4 C         139.6737  139.7456  167.3155 C.ar    1  UNL1       -0.0061
      5 C         138.6263  139.2796  166.3482 C.ar    1  UNL1       -0.0028
      6 C         139.0236  138.8183  164.9773 C.ar    1  UNL1        0.0042
      7 O         140.7972  136.9046  162.8528 O.2     1  UNL1       -0.2699
      8 C         140.8656  138.3615  163.2029 C.2     1  UNL1        0.2491
      9 N         141.3312  139.3571  162.1821 N.am    1  UNL1       -0.2732
     10 C         141.3996  140.8141  162.5322 C.3     1  UNL1        0.1110
     11 C         141.8653  141.8097  161.5114 C.3     1  UNL1        0.0939
     12 N         142.2625  141.3483  160.1405 N.3     1  UNL1       -0.2711
     13 C         142.1941  139.8913  159.7904 C.3     1  UNL1        0.0939
     14 C         141.7285  138.8957  160.8112 C.3     1  UNL1        0.1110
     15 C         142.7281  142.3438  159.1198 C.3     1  UNL1        0.0577
     16 C         143.8328  142.9498  158.3058 C.3     1  UNL1        0.0173
     17 C         142.4300  143.4623  158.1657 C.3     1  UNL1        0.0173
     18 C         139.2765  140.2070  168.6864 C.3     1  UNL1        0.0993
     19 N         140.1869  141.1072  169.4679 N.3     1  UNL1       -0.2646
     20 C         140.2731  142.5654  169.1271 C.3     1  UNL1        0.1049
     21 C         141.1836  143.4657  169.9087 C.3     1  UNL1        0.1595
     22 O         142.0077  142.9077  171.0309 O.3     1  UNL1       -0.3508
     23 C         141.9214  141.4495  171.3717 C.3     1  UNL1        0.1595
     24 C         141.0110  140.5492  170.5902 C.3     1  UNL1        0.1049
@<TRIPOS>BOND
     1     7     8    2
     2     8     1    1
     3     1     2   ar
     4     2     3   ar
     5     3     4   ar
     6     4    18    1
     7    18    19    1
     8    19    20    1
     9    20    21    1
    10    21    22    1
    11    22    23    1
    12    23    24    1
    13     4     5   ar
    14     5     6   ar
    15     8     9   am
    16     9    10    1
    17    10    11    1
    18    11    12    1
    19    12    15    1
    20    15    16    1
    21    16    17    1
    22    12    13    1
    23    13    14    1
    24     6     1   ar
    25    14     9    1
    26    24    19    1
    27    17    15    1
@<TRIPOS>MOLECULE
*****
 24 27 0 0 0
SMALL
GASTEIGER

@<TRIPOS>ATOM
      1 C         141.1682  143.3941  163.4411 C.ar    1  UNL1        0.0536
      2 C         141.7867  142.1333  163.9682 C.ar    1  UNL1        0.0042
      3 C         141.4622  141.6615  165.3546 C.ar    1  UNL1       -0.0028
      4 C         140.5192  142.4505  166.2138 C.ar    1  UNL1       -0.0061
      5 C         139.9006  143.7112  165.6867 C.ar    1  UNL1       -0.0028
      6 C         140.2251  144.1830  164.3003 C.ar    1  UNL1        0.0042
      7 O         142.7298  144.6779  161.8091 O.2     1  UNL1       -0.2699
      8 C         141.4927  143.8659  162.0547 C.2     1  UNL1        0.2491
      9 N         140.5801  143.5258  160.9139 N.am    1  UNL1       -0.2732
     10 C         139.3430  142.7138  161.1594 C.3     1  UNL1        0.1110
     11 C         138.4304  142.3737  160.0185 C.3     1  UNL1        0.0939
     12 N         138.7549  142.8455  158.6322 N.3     1  UNL1       -0.2711
     13 C         139.9920  143.6575  158.3866 C.3     1  UNL1        0.0939
     14 C         140.9046  143.9977  159.5274 C.3     1  UNL1        0.1110
     15 C         137.8423  142.5054  157.4914 C.3     1  UNL1        0.0577
     16 C         136.9442  141.5276  156.7934 C.3     1  UNL1        0.0173
     17 C         137.1599  142.8940  156.2135 C.3     1  UNL1        0.0173
     18 C         140.1947  141.9786  167.6003 C.3     1  UNL1        0.0993
     19 N         141.2793  141.4287  168.4784 N.3     1  UNL1       -0.2646
     20 C         141.2471  139.9889  168.8976 C.3     1  UNL1        0.1049
     21 C         142.3318  139.4390  169.7758 C.3     1  UNL1        0.1595
     22 O         143.4486  140.3289  170.2348 O.3     1  UNL1       -0.3508
     23 C         143.4808  141.7688  169.8156 C.3     1  UNL1        0.1595
     24 C         142.3962  142.3187  168.9374 C.3     1  UNL1        0.1049
@<TRIPOS>BOND
     1     7     8    2
     2     8     1    1
     3     1     2   ar
     4     2     3   ar
     5     3     4   ar
     6     4    18    1
     7    18    19    1
     8    19    20    1
     9    20    21    1
    10    21    22    1
    11    22    23    1
    12    23    24    1
    13     4     5   ar
    14     5     6   ar
    15     8     9   am
    16     9    10    1
    17    10    11    1
    18    11    12    1
    19    12    15    1
    20    15    16    1
    21    16    17    1
    22    12    13    1
    23    13    14    1
    24     6     1   ar
    25    14     9    1
    26    24    19    1
    27    17    15    1
