@<TRIPOS>MOLECULE
*****
 30 33 0 0 0
SMALL
GASTEIGER

@<TRIPOS>ATOM
      1 N         140.8560  137.6429  162.0549 N.3     1  UNL1       -0.2673
      2 C         139.7184  138.0775  161.1792 C.3     1  UNL1        0.0885
      3 C         140.2951  138.6176  159.9041 C.3     1  UNL1        0.0770
      4 N         139.5147  139.1628  158.7449 N.3     1  UNL1       -0.3207
      5 C         141.7891  138.5167  159.9918 C.3     1  UNL1        0.1081
      6 C         142.1358  137.9143  161.3210 C.3     1  UNL1        0.0829
      7 H         140.1583  139.4604  158.0117 H       1  UNL1        0.1189
      8 H         138.9592  139.9605  159.0541 H       1  UNL1        0.1189
      9 C         142.7651  138.9433  158.9356 C.2     1  UNL1        0.2286
     10 O         143.1480  137.9927  157.8403 O.2     1  UNL1       -0.2748
     11 N         143.3582  140.3204  158.9748 N.am    1  UNL1       -0.2685
     12 C         144.3415  140.8852  157.9929 C.3     1  UNL1        0.0944
     13 C         144.6632  142.2885  158.4139 C.3     1  UNL1        0.0244
     14 C         143.8787  142.5910  159.6562 C.3     1  UNL1        0.0373
     15 C         143.0722  141.3747  160.0027 C.3     1  UNL1        0.1672
     16 C         142.1428  141.2368  161.1720 C.1     1  UNL1        0.0925
     17 N         141.2133  141.0990  162.3414 N.1     1  UNL1       -0.1942
     18 C         140.7351  137.0423  163.4241 C.3     1  UNL1        0.0992
     19 C         140.1584  139.7045  167.0059 C.ar    1  UNL1        0.0551
     20 C         141.5351  139.4740  166.4568 C.ar    1  UNL1        0.0044
     21 C         141.7273  138.5866  165.2628 C.ar    1  UNL1       -0.0028
     22 C         140.5429  137.9297  164.6181 C.ar    1  UNL1       -0.0061
     23 C         139.1662  138.1603  165.1673 C.ar    1  UNL1       -0.0028
     24 C         138.9740  139.0477  166.3612 C.ar    1  UNL1        0.0044
     25 C         140.2851  143.8865  170.2272 C.3     1  UNL1        0.0967
     26 C         140.0244  142.5142  169.6806 C.ar    1  UNL1        0.2270
     27 N         139.3162  141.4008  170.3940 N.ar    1  UNL1       -0.1114
     28 N         139.2802  140.2128  169.4789 N.ar    1  UNL1       -0.1072
     29 C         139.9662  140.5920  168.1999 C.ar    1  UNL1        0.2496
     30 O         140.4261  142.0143  168.3246 O.2     1  UNL1       -0.4195
@<TRIPOS>BOND
     1    25    26    1
     2    26    27   ar
     3    27    28   ar
     4    28    29   ar
     5    29    19    1
     6    19    20   ar
     7    20    21   ar
     8    21    22   ar
     9    22    18    1
    10    18     1    1
    11     1     2    1
    12     2     3    1
    13     3     4    1
    14     3     5    1
    15     5     9    1
    16     9    10    2
    17     9    11   am
    18    11    12    1
    19    12    13    1
    20    13    14    1
    21    14    15    1
    22    15    16    1
    23    16    17    3
    24     5     6    1
    25    22    23   ar
    26    23    24   ar
    27    29    30   ar
    28    30    26   ar
    29    24    19   ar
    30     6     1    1
    31    15    11    1
    32     4     7    1
    33     4     8    1
@<TRIPOS>MOLECULE
*****
 30 33 0 0 0
SMALL
GASTEIGER

@<TRIPOS>ATOM
      1 N         141.0061  137.5886  162.0305 N.3     1  UNL1       -0.2673
      2 C         142.3036  137.6672  161.2819 C.3     1  UNL1        0.0885
      3 C         142.0387  138.3320  159.9637 C.3     1  UNL1        0.0770
      4 N         143.0563  138.6148  158.8985 N.3     1  UNL1       -0.3207
      5 C         140.5774  138.6643  159.8974 C.3     1  UNL1        0.1081
      6 C         139.9393  138.2048  161.1748 C.3     1  UNL1        0.0829
      7 H         142.6030  139.0740  158.1085 H       1  UNL1        0.1189
      8 H         143.4756  137.7385  158.5876 H       1  UNL1        0.1189
      9 C         139.8772  139.3377  158.7545 C.2     1  UNL1        0.2286
     10 O         139.3113  138.5173  157.6335 O.2     1  UNL1       -0.2748
     11 N         139.7430  140.8314  158.7326 N.am    1  UNL1       -0.2685
     12 C         139.0727  141.6409  157.6623 C.3     1  UNL1        0.0944
     13 C         139.1709  143.0878  158.0454 C.3     1  UNL1        0.0244
     14 C         139.9019  143.1727  159.3525 C.3     1  UNL1        0.0373
     15 C         140.2555  141.7781  159.7772 C.3     1  UNL1        0.1672
     16 C         140.9922  141.3972  161.0271 C.1     1  UNL1        0.0925
     17 N         141.7288  141.0163  162.2771 N.1     1  UNL1       -0.1942
     18 C         140.8100  136.9976  163.3951 C.3     1  UNL1        0.0992
     19 C         140.2116  139.6920  166.9493 C.ar    1  UNL1        0.0551
     20 C         139.0300  139.0380  166.2966 C.ar    1  UNL1        0.0044
     21 C         139.2295  138.1399  165.1119 C.ar    1  UNL1       -0.0028
     22 C         140.6105  137.8958  164.5799 C.ar    1  UNL1       -0.0061
     23 C         141.7921  138.5498  165.2325 C.ar    1  UNL1       -0.0028
     24 C         141.5927  139.4479  166.4172 C.ar    1  UNL1        0.0044
     25 C         140.3278  143.8997  170.1373 C.3     1  UNL1        0.0967
     26 C         140.0656  142.5242  169.5994 C.ar    1  UNL1        0.2270
     27 N         139.3449  141.4202  170.3150 N.ar    1  UNL1       -0.1114
     28 N         139.3119  140.2250  169.4093 N.ar    1  UNL1       -0.1072
     29 C         140.0122  140.5902  168.1340 C.ar    1  UNL1        0.2496
     30 O         140.4780  142.0112  168.2515 O.2     1  UNL1       -0.4195
@<TRIPOS>BOND
     1    25    26    1
     2    26    27   ar
     3    27    28   ar
     4    28    29   ar
     5    29    19    1
     6    19    20   ar
     7    20    21   ar
     8    21    22   ar
     9    22    18    1
    10    18     1    1
    11     1     2    1
    12     2     3    1
    13     3     4    1
    14     3     5    1
    15     5     9    1
    16     9    10    2
    17     9    11   am
    18    11    12    1
    19    12    13    1
    20    13    14    1
    21    14    15    1
    22    15    16    1
    23    16    17    3
    24     5     6    1
    25    22    23   ar
    26    23    24   ar
    27    29    30   ar
    28    30    26   ar
    29    24    19   ar
    30     6     1    1
    31    15    11    1
    32     4     7    1
    33     4     8    1
@<TRIPOS>MOLECULE
*****
 30 33 0 0 0
SMALL
GASTEIGER

@<TRIPOS>ATOM
      1 N         140.3547  138.2160  161.5574 N.3     1  UNL1       -0.2673
      2 C         141.5987  137.7675  162.2655 C.3     1  UNL1        0.0885
      3 C         142.7600  137.9759  161.3393 C.3     1  UNL1        0.0770
      4 N         144.1955  137.6621  161.6408 N.3     1  UNL1       -0.3207
      5 C         142.2338  138.5531  160.0587 C.3     1  UNL1        0.1081
      6 C         140.7473  138.7015  160.1935 C.3     1  UNL1        0.0829
      7 H         144.7726  137.9022  160.8347 H       1  UNL1        0.1189
      8 H         144.2908  136.6668  161.8427 H       1  UNL1        0.1189
      9 C         143.0507  138.9179  158.8547 C.2     1  UNL1        0.2286
     10 O         143.2413  137.9233  157.7482 O.2     1  UNL1       -0.2748
     11 N         143.6771  140.2773  158.7572 N.am    1  UNL1       -0.2685
     12 C         144.5159  140.7822  157.6207 C.3     1  UNL1        0.0944
     13 C         144.9319  142.1875  157.9402 C.3     1  UNL1        0.0244
     14 C         144.3502  142.5512  159.2743 C.3     1  UNL1        0.0373
     15 C         143.5747  141.3706  159.7791 C.3     1  UNL1        0.1672
     16 C         142.8280  141.2964  161.0779 C.1     1  UNL1        0.0925
     17 N         142.0812  141.2221  162.3767 N.1     1  UNL1       -0.1942
     18 C         138.9627  138.1844  162.1152 C.3     1  UNL1        0.0992
     19 C         138.2852  138.8560  166.5129 C.ar    1  UNL1        0.0551
     20 C         138.2457  140.0156  165.5623 C.ar    1  UNL1        0.0044
     21 C         138.4715  139.7918  164.0964 C.ar    1  UNL1       -0.0028
     22 C         138.7369  138.4083  163.5811 C.ar    1  UNL1       -0.0061
     23 C         138.7764  137.2486  164.5317 C.ar    1  UNL1       -0.0028
     24 C         138.5506  137.4725  165.9976 C.ar    1  UNL1        0.0044
     25 C         136.2141  138.6412  171.3652 C.3     1  UNL1        0.0967
     26 C         137.1074  138.9811  170.2092 C.ar    1  UNL1        0.2270
     27 N         138.3164  139.8676  170.2601 N.ar    1  UNL1       -0.1114
     28 N         138.9047  139.9286  168.8816 N.ar    1  UNL1       -0.1072
     29 C         138.0594  139.0799  167.9788 C.ar    1  UNL1        0.2496
     30 O         136.9485  138.4943  168.7993 O.2     1  UNL1       -0.4195
@<TRIPOS>BOND
     1    25    26    1
     2    26    27   ar
     3    27    28   ar
     4    28    29   ar
     5    29    19    1
     6    19    20   ar
     7    20    21   ar
     8    21    22   ar
     9    22    18    1
    10    18     1    1
    11     1     2    1
    12     2     3    1
    13     3     4    1
    14     3     5    1
    15     5     9    1
    16     9    10    2
    17     9    11   am
    18    11    12    1
    19    12    13    1
    20    13    14    1
    21    14    15    1
    22    15    16    1
    23    16    17    3
    24     5     6    1
    25    22    23   ar
    26    23    24   ar
    27    29    30   ar
    28    30    26   ar
    29    24    19   ar
    30     6     1    1
    31    15    11    1
    32     4     7    1
    33     4     8    1
@<TRIPOS>MOLECULE
*****
 30 33 0 0 0
SMALL
GASTEIGER

@<TRIPOS>ATOM
      1 N         140.3414  138.4444  161.4699 N.3     1  UNL1       -0.2673
      2 C         139.2272  138.3589  160.4693 C.3     1  UNL1        0.0885
      3 C         139.5068  139.3496  159.3784 C.3     1  UNL1        0.0770
      4 N         138.6499  139.5988  158.1727 N.3     1  UNL1       -0.3207
      5 C         140.7939  140.0475  159.7047 C.3     1  UNL1        0.1081
      6 C         141.3097  139.4881  160.9973 C.3     1  UNL1        0.0829
      7 H         139.0764  140.3243  157.5964 H       1  UNL1        0.1189
      8 H         137.7231  139.9027  158.4712 H       1  UNL1        0.1189
      9 C         141.4500  141.1170  158.8827 C.2     1  UNL1        0.2286
     10 O         142.4077  140.7422  157.7908 O.2     1  UNL1       -0.2748
     11 N         141.1484  142.5613  159.1526 N.am    1  UNL1       -0.2685
     12 C         141.7248  143.7348  158.4173 C.3     1  UNL1        0.0944
     13 C         141.1501  144.9846  159.0154 C.3     1  UNL1        0.0244
     14 C         140.2183  144.5835  160.1205 C.3     1  UNL1        0.0373
     15 C         140.2173  143.0858  160.2052 C.3     1  UNL1        0.1672
     16 C         139.4244  142.2581  161.1727 C.1     1  UNL1        0.0925
     17 N         138.6314  141.4302  162.1402 N.1     1  UNL1       -0.1942
     18 C         140.4655  137.6295  162.7230 C.3     1  UNL1        0.0992
     19 C         139.7367  139.5406  166.7313 C.ar    1  UNL1        0.0551
     20 C         141.1312  139.4498  166.1862 C.ar    1  UNL1        0.0044
     21 C         141.3741  138.8128  164.8501 C.ar    1  UNL1       -0.0028
     22 C         140.2225  138.2665  164.0592 C.ar    1  UNL1       -0.0061
     23 C         138.8281  138.3573  164.6043 C.ar    1  UNL1       -0.0028
     24 C         138.5852  138.9943  165.9404 C.ar    1  UNL1        0.0044
     25 C         139.8701  142.9314  170.7768 C.3     1  UNL1        0.0967
     26 C         139.5550  141.7362  169.9270 C.ar    1  UNL1        0.2270
     27 N         138.6846  140.5795  170.3202 N.ar    1  UNL1       -0.1114
     28 N         138.6467  139.6163  169.1709 N.ar    1  UNL1       -0.1072
     29 C         139.4937  140.1776  168.0675 C.ar    1  UNL1        0.2496
     30 O         140.0551  141.4878  168.5348 O.2     1  UNL1       -0.4195
@<TRIPOS>BOND
     1    25    26    1
     2    26    27   ar
     3    27    28   ar
     4    28    29   ar
     5    29    19    1
     6    19    20   ar
     7    20    21   ar
     8    21    22   ar
     9    22    18    1
    10    18     1    1
    11     1     2    1
    12     2     3    1
    13     3     4    1
    14     3     5    1
    15     5     9    1
    16     9    10    2
    17     9    11   am
    18    11    12    1
    19    12    13    1
    20    13    14    1
    21    14    15    1
    22    15    16    1
    23    16    17    3
    24     5     6    1
    25    22    23   ar
    26    23    24   ar
    27    29    30   ar
    28    30    26   ar
    29    24    19   ar
    30     6     1    1
    31    15    11    1
    32     4     7    1
    33     4     8    1
@<TRIPOS>MOLECULE
*****
 30 33 0 0 0
SMALL
GASTEIGER

@<TRIPOS>ATOM
      1 N         137.9891  140.6122  163.6826 N.3     1  UNL1       -0.2673
      2 C         138.5013  139.2232  163.4412 C.3     1  UNL1        0.0885
      3 C         139.0336  138.6933  164.7395 C.3     1  UNL1        0.0770
      4 N         139.6424  137.3396  164.9561 N.3     1  UNL1       -0.3207
      5 C         138.8504  139.7548  165.7835 C.3     1  UNL1        0.1081
      6 C         138.2048  140.9407  165.1302 C.3     1  UNL1        0.0829
      7 H         139.9186  137.2433  165.9332 H       1  UNL1        0.1189
      8 H         140.4629  137.2363  164.3590 H       1  UNL1        0.1189
      9 C         139.2437  139.6489  167.2271 C.2     1  UNL1        0.2286
     10 O         138.2768  139.0906  168.2288 O.2     1  UNL1       -0.2748
     11 N         140.6037  140.1014  167.6691 N.am    1  UNL1       -0.2685
     12 C         141.1353  140.0571  169.0710 C.3     1  UNL1        0.0944
     13 C         142.5312  140.6059  169.0551 C.3     1  UNL1        0.0244
     14 C         142.8624  140.9894  167.6432 C.3     1  UNL1        0.0373
     15 C         141.6711  140.6775  166.7866 C.3     1  UNL1        0.1672
     16 C         141.5658  140.9025  165.3073 C.1     1  UNL1        0.0925
     17 N         141.4604  141.1273  163.8280 N.1     1  UNL1       -0.1942
     18 C         137.3698  141.5143  162.6566 C.3     1  UNL1        0.0992
     19 C         139.9806  143.7093  159.7214 C.ar    1  UNL1        0.0551
     20 C         139.8073  144.2397  161.1137 C.ar    1  UNL1        0.0044
     21 C         138.9371  143.5080  162.0921 C.ar    1  UNL1       -0.0028
     22 C         138.2401  142.2460  161.6781 C.ar    1  UNL1       -0.0061
     23 C         138.4133  141.7156  160.2858 C.ar    1  UNL1       -0.0028
     24 C         139.2836  142.4473  159.3074 C.ar    1  UNL1        0.0044
     25 C         142.3716  145.1803  155.2492 C.3     1  UNL1        0.0967
     26 C         141.9499  145.1172  156.6873 C.ar    1  UNL1        0.2270
     27 N         142.4302  146.0168  157.7873 N.ar    1  UNL1       -0.1114
     28 N         141.7510  145.5989  159.0577 N.ar    1  UNL1       -0.1072
     29 C         140.8509  144.4410  158.7429 C.ar    1  UNL1        0.2496
     30 O         140.9738  144.1433  157.2779 O.2     1  UNL1       -0.4195
@<TRIPOS>BOND
     1    25    26    1
     2    26    27   ar
     3    27    28   ar
     4    28    29   ar
     5    29    19    1
     6    19    20   ar
     7    20    21   ar
     8    21    22   ar
     9    22    18    1
    10    18     1    1
    11     1     2    1
    12     2     3    1
    13     3     4    1
    14     3     5    1
    15     5     9    1
    16     9    10    2
    17     9    11   am
    18    11    12    1
    19    12    13    1
    20    13    14    1
    21    14    15    1
    22    15    16    1
    23    16    17    3
    24     5     6    1
    25    22    23   ar
    26    23    24   ar
    27    29    30   ar
    28    30    26   ar
    29    24    19   ar
    30     6     1    1
    31    15    11    1
    32     4     7    1
    33     4     8    1
@<TRIPOS>MOLECULE
*****
 30 33 0 0 0
SMALL
GASTEIGER

@<TRIPOS>ATOM
      1 N         138.6533  142.6781  164.7762 N.3     1  UNL1       -0.2673
      2 C         137.9297  141.3759  164.6017 C.3     1  UNL1        0.0885
      3 C         138.6188  140.3458  165.4467 C.3     1  UNL1        0.0770
      4 N         138.2272  138.9034  165.5729 N.3     1  UNL1       -0.3207
      5 C         139.7685  141.0115  166.1434 C.3     1  UNL1        0.1081
      6 C         139.7897  142.4529  165.7290 C.3     1  UNL1        0.0829
      7 H         138.8670  138.4320  166.2123 H       1  UNL1        0.1189
      8 H         138.2724  138.4574  164.6566 H       1  UNL1        0.1189
      9 C         140.7282  140.3516  167.0886 C.2     1  UNL1        0.2286
     10 O         140.4956  140.4280  168.5685 O.2     1  UNL1       -0.2748
     11 N         141.9205  139.6152  166.5540 N.am    1  UNL1       -0.2685
     12 C         142.9611  138.9098  167.3724 C.3     1  UNL1        0.0944
     13 C         143.9654  138.3135  166.4312 C.3     1  UNL1        0.0244
     14 C         143.5456  138.6503  165.0310 C.3     1  UNL1        0.0373
     15 C         142.2818  139.4548  165.1070 C.3     1  UNL1        0.1672
     16 C         141.5141  140.0028  163.9406 C.1     1  UNL1        0.0925
     17 N         140.7463  140.5508  162.7742 N.1     1  UNL1       -0.1942
     18 C         138.3022  143.9775  164.1141 C.3     1  UNL1        0.0992
     19 C         140.1163  145.0375  160.1347 C.ar    1  UNL1        0.0551
     20 C         140.0192  146.0739  161.2146 C.ar    1  UNL1        0.0044
     21 C         139.4145  145.7206  162.5410 C.ar    1  UNL1       -0.0028
     22 C         138.9069  144.3308  162.7876 C.ar    1  UNL1       -0.0061
     23 C         139.0040  143.2943  161.7076 C.ar    1  UNL1       -0.0028
     24 C         139.6088  143.6476  160.3812 C.ar    1  UNL1        0.0044
     25 C         140.6560  146.5547  155.1060 C.3     1  UNL1        0.0967
     26 C         140.9691  146.0882  156.4968 C.ar    1  UNL1        0.2270
     27 N         142.3342  145.7807  157.0372 N.ar    1  UNL1       -0.1114
     28 N         142.1809  145.3497  158.4658 N.ar    1  UNL1       -0.1072
     29 C         140.7211  145.3908  158.8082 C.ar    1  UNL1        0.2496
     30 O         139.9722  145.8472  157.5913 O.2     1  UNL1       -0.4195
@<TRIPOS>BOND
     1    25    26    1
     2    26    27   ar
     3    27    28   ar
     4    28    29   ar
     5    29    19    1
     6    19    20   ar
     7    20    21   ar
     8    21    22   ar
     9    22    18    1
    10    18     1    1
    11     1     2    1
    12     2     3    1
    13     3     4    1
    14     3     5    1
    15     5     9    1
    16     9    10    2
    17     9    11   am
    18    11    12    1
    19    12    13    1
    20    13    14    1
    21    14    15    1
    22    15    16    1
    23    16    17    3
    24     5     6    1
    25    22    23   ar
    26    23    24   ar
    27    29    30   ar
    28    30    26   ar
    29    24    19   ar
    30     6     1    1
    31    15    11    1
    32     4     7    1
    33     4     8    1
@<TRIPOS>MOLECULE
*****
 30 33 0 0 0
SMALL
GASTEIGER

@<TRIPOS>ATOM
      1 N         139.6743  138.4643  163.0918 N.3     1  UNL1       -0.2673
      2 C         138.8651  139.7105  162.8869 C.3     1  UNL1        0.0885
      3 C         138.2854  140.1099  164.2115 C.3     1  UNL1        0.0770
      4 N         137.4087  141.2998  164.4675 N.3     1  UNL1       -0.3207
      5 C         138.7364  139.1104  165.2351 C.3     1  UNL1        0.1081
      6 C         139.5948  138.0934  164.5431 C.3     1  UNL1        0.0829
      7 H         137.1590  141.3317  165.4560 H       1  UNL1        0.1189
      8 H         136.5611  141.2249  163.9050 H       1  UNL1        0.1189
      9 C         138.3899  139.1254  166.6944 C.2     1  UNL1        0.2286
     10 O         137.2073  138.3485  167.1925 O.2     1  UNL1       -0.2748
     11 N         139.2259  139.9171  167.6557 N.am    1  UNL1       -0.2685
     12 C         139.0031  140.0266  169.1351 C.3     1  UNL1        0.0944
     13 C         140.0710  140.9156  169.7001 C.3     1  UNL1        0.0244
     14 C         140.9539  141.3555  168.5700 C.3     1  UNL1        0.0373
     15 C         140.4315  140.7384  167.3065 C.3     1  UNL1        0.1672
     16 C         141.0128  140.9120  165.9347 C.1     1  UNL1        0.0925
     17 N         141.5941  141.0857  164.5628 N.1     1  UNL1       -0.1942
     18 C         140.4303  137.7197  162.0317 C.3     1  UNL1        0.0992
     19 C         143.2448  139.9297  159.3032 C.ar    1  UNL1        0.0551
     20 C         143.6532  139.6240  160.7138 C.ar    1  UNL1        0.0044
     21 C         142.7150  138.8874  161.6232 C.ar    1  UNL1       -0.0028
     22 C         141.3685  138.4564  161.1221 C.ar    1  UNL1       -0.0061
     23 C         140.9601  138.7621  159.7115 C.ar    1  UNL1       -0.0028
     24 C         141.8983  139.4987  158.8021 C.ar    1  UNL1        0.0044
     25 C         146.5080  141.0721  155.3122 C.3     1  UNL1        0.0967
     26 C         145.6829  141.1915  156.5592 C.ar    1  UNL1        0.2270
     27 N         145.5705  142.4085  157.4290 N.ar    1  UNL1       -0.1114
     28 N         144.6435  142.0839  158.5627 N.ar    1  UNL1       -0.1072
     29 C         144.1830  140.6663  158.3937 C.ar    1  UNL1        0.2496
     30 O         144.8254  140.1148  157.1555 O.2     1  UNL1       -0.4195
@<TRIPOS>BOND
     1    25    26    1
     2    26    27   ar
     3    27    28   ar
     4    28    29   ar
     5    29    19    1
     6    19    20   ar
     7    20    21   ar
     8    21    22   ar
     9    22    18    1
    10    18     1    1
    11     1     2    1
    12     2     3    1
    13     3     4    1
    14     3     5    1
    15     5     9    1
    16     9    10    2
    17     9    11   am
    18    11    12    1
    19    12    13    1
    20    13    14    1
    21    14    15    1
    22    15    16    1
    23    16    17    3
    24     5     6    1
    25    22    23   ar
    26    23    24   ar
    27    29    30   ar
    28    30    26   ar
    29    24    19   ar
    30     6     1    1
    31    15    11    1
    32     4     7    1
    33     4     8    1
@<TRIPOS>MOLECULE
*****
 30 33 0 0 0
SMALL
GASTEIGER

@<TRIPOS>ATOM
      1 N         140.2749  138.4821  161.4505 N.3     1  UNL1       -0.2673
      2 C         139.4487  138.1616  160.2402 C.3     1  UNL1        0.0885
      3 C         139.6457  139.2618  159.2399 C.3     1  UNL1        0.0770
      4 N         139.0069  139.3466  157.8853 N.3     1  UNL1       -0.3207
      5 C         140.5935  140.2624  159.8319 C.3     1  UNL1        0.1081
      6 C         140.9824  139.7805  161.1981 C.3     1  UNL1        0.0829
      7 H         139.3157  140.1982  157.4165 H       1  UNL1        0.1189
      8 H         137.9923  139.3640  157.9883 H       1  UNL1        0.1189
      9 C         141.0690  141.5234  159.1733 C.2     1  UNL1        0.2286
     10 O         140.2683  142.7851  159.3028 O.2     1  UNL1       -0.2748
     11 N         142.3452  141.5227  158.3851 N.am    1  UNL1       -0.2685
     12 C         142.9435  142.7006  157.6747 C.3     1  UNL1        0.0944
     13 C         144.2153  142.2498  157.0195 C.3     1  UNL1        0.0244
     14 C         144.4031  140.7932  157.3250 C.3     1  UNL1        0.0373
     15 C         143.2473  140.3439  158.1690 C.3     1  UNL1        0.1672
     16 C         143.0315  138.9589  158.7030 C.1     1  UNL1        0.0925
     17 N         142.8157  137.5738  159.2371 N.1     1  UNL1       -0.1942
     18 C         140.3757  137.6504  162.6946 C.3     1  UNL1        0.0992
     19 C         139.7111  139.5399  166.7243 C.ar    1  UNL1        0.0551
     20 C         138.5498  138.9792  165.9581 C.ar    1  UNL1        0.0044
     21 C         138.7714  138.3494  164.6149 C.ar    1  UNL1       -0.0028
     22 C         140.1542  138.2803  164.0379 C.ar    1  UNL1       -0.0061
     23 C         141.3155  138.8409  164.8041 C.ar    1  UNL1       -0.0028
     24 C         141.0939  139.4707  166.1473 C.ar    1  UNL1        0.0044
     25 C         139.9391  142.8908  170.7987 C.3     1  UNL1        0.0967
     26 C         139.5943  141.7099  169.9403 C.ar    1  UNL1        0.2270
     27 N         138.7029  140.5678  170.3288 N.ar    1  UNL1       -0.1114
     28 N         138.6382  139.6159  169.1714 N.ar    1  UNL1       -0.1072
     29 C         139.4896  140.1697  168.0675 C.ar    1  UNL1        0.2496
     30 O         140.0805  141.4639  168.5428 O.2     1  UNL1       -0.4195
@<TRIPOS>BOND
     1    25    26    1
     2    26    27   ar
     3    27    28   ar
     4    28    29   ar
     5    29    19    1
     6    19    20   ar
     7    20    21   ar
     8    21    22   ar
     9    22    18    1
    10    18     1    1
    11     1     2    1
    12     2     3    1
    13     3     4    1
    14     3     5    1
    15     5     9    1
    16     9    10    2
    17     9    11   am
    18    11    12    1
    19    12    13    1
    20    13    14    1
    21    14    15    1
    22    15    16    1
    23    16    17    3
    24     5     6    1
    25    22    23   ar
    26    23    24   ar
    27    29    30   ar
    28    30    26   ar
    29    24    19   ar
    30     6     1    1
    31    15    11    1
    32     4     7    1
    33     4     8    1
@<TRIPOS>MOLECULE
*****
 30 33 0 0 0
SMALL
GASTEIGER

@<TRIPOS>ATOM
      1 N         137.9967  141.3529  161.5793 N.3     1  UNL1       -0.2673
      2 C         138.4842  142.5243  160.7794 C.3     1  UNL1        0.0885
      3 C         139.0275  142.0052  159.4812 C.3     1  UNL1        0.0770
      4 N         139.6188  142.8330  158.3788 N.3     1  UNL1       -0.3207
      5 C         138.8758  140.5128  159.4788 C.3     1  UNL1        0.1081
      6 C         138.2387  140.1097  160.7756 C.3     1  UNL1        0.0829
      7 H         139.9079  142.2237  157.6137 H       1  UNL1        0.1189
      8 H         140.4287  143.3420  158.7328 H       1  UNL1        0.1189
      9 C         139.2887  139.5864  158.3738 C.2     1  UNL1        0.2286
     10 O         138.3700  139.3483  157.2121 O.2     1  UNL1       -0.2748
     11 N         140.6201  138.8980  158.4303 N.am    1  UNL1       -0.2685
     12 C         141.1665  137.9494  157.4048 C.3     1  UNL1        0.0944
     13 C         142.5231  137.5025  157.8630 C.3     1  UNL1        0.0244
     14 C         142.8152  138.1749  159.1717 C.3     1  UNL1        0.0373
     15 C         141.6390  139.0374  159.5223 C.3     1  UNL1        0.1672
     16 C         141.5053  139.8895  160.7494 C.1     1  UNL1        0.0925
     17 N         141.3716  140.7418  161.9766 N.1     1  UNL1       -0.1942
     18 C         137.3761  141.4138  162.9436 C.3     1  UNL1        0.0992
     19 C         139.9381  142.2598  166.5450 C.ar    1  UNL1        0.0551
     20 C         139.5098  143.3836  165.6487 C.ar    1  UNL1        0.0044
     21 C         138.6558  143.1016  164.4482 C.ar    1  UNL1       -0.0028
     22 C         138.2301  141.6958  164.1441 C.ar    1  UNL1       -0.0061
     23 C         138.6584  140.5720  165.0405 C.ar    1  UNL1       -0.0028
     24 C         139.5124  140.8540  166.2409 C.ar    1  UNL1        0.0044
     25 C         144.0240  142.3674  169.8879 C.3     1  UNL1        0.0967
     26 C         142.6702  142.5912  169.2821 C.ar    1  UNL1        0.2270
     27 N         141.5422  143.3601  169.9039 N.ar    1  UNL1       -0.1114
     28 N         140.3815  143.3295  168.9543 N.ar    1  UNL1       -0.1072
     29 C         140.7921  142.5417  167.7456 C.ar    1  UNL1        0.2496
     30 O         142.2065  142.0854  167.9482 O.2     1  UNL1       -0.4195
@<TRIPOS>BOND
     1    25    26    1
     2    26    27   ar
     3    27    28   ar
     4    28    29   ar
     5    29    19    1
     6    19    20   ar
     7    20    21   ar
     8    21    22   ar
     9    22    18    1
    10    18     1    1
    11     1     2    1
    12     2     3    1
    13     3     4    1
    14     3     5    1
    15     5     9    1
    16     9    10    2
    17     9    11   am
    18    11    12    1
    19    12    13    1
    20    13    14    1
    21    14    15    1
    22    15    16    1
    23    16    17    3
    24     5     6    1
    25    22    23   ar
    26    23    24   ar
    27    29    30   ar
    28    30    26   ar
    29    24    19   ar
    30     6     1    1
    31    15    11    1
    32     4     7    1
    33     4     8    1
