@<TRIPOS>MOLECULE
*****
 34 38 0 0 0
SMALL
GASTEIGER

@<TRIPOS>ATOM
      1 N         138.9048  145.5986  162.3168 N.3     1  UNL1       -0.2985
      2 H         138.2984  144.9835  161.7743 H       1  UNL1        0.1232
      3 C         139.3049  144.8381  163.5463 C.3     1  UNL1        0.0543
      4 C         138.4595  144.6287  164.7675 C.3     1  UNL1        0.0160
      5 C         139.2527  143.8146  165.7463 C.3     1  UNL1        0.0055
      6 C         140.5884  143.5209  165.1300 C.3     1  UNL1        0.0202
      7 C         141.8116  143.3919  164.2715 C.3     1  UNL1        0.0057
      8 C         140.6206  144.1535  163.7703 C.3     1  UNL1        0.0185
      9 C         141.1259  142.7339  166.2882 C.ar    1  UNL1       -0.0228
     10 C         142.3384  141.8691  166.1092 C.ar    1  UNL1       -0.0043
     11 C         142.8760  141.0821  167.2675 C.ar    1  UNL1        0.0035
     12 C         142.2010  141.1597  168.6049 C.ar    1  UNL1        0.0714
     13 C         140.9884  142.0245  168.7839 C.ar    1  UNL1        0.0035
     14 C         140.4509  142.8116  167.6255 C.ar    1  UNL1       -0.0043
     15 C         142.7385  140.3727  169.7631 C.3     1  UNL1        0.4186
     16 F         143.2760  139.5856  170.9214 F       1  UNL1       -0.1659
     17 F         141.6506  139.3567  169.5776 F       1  UNL1       -0.1659
     18 F         143.8263  141.3886  169.9486 F       1  UNL1       -0.1659
     19 C         139.9554  146.1103  161.3764 C.3     1  UNL1        0.0694
     20 C         140.7696  145.1465  160.5652 C.3     1  UNL1        0.0292
     21 C         140.1084  144.3057  159.5137 C.3     1  UNL1        0.0666
     22 S         139.9608  142.8272  159.7190 S.3     1  UNL1       -0.0756
     23 C         138.5162  141.0664  162.8619 C.ar    1  UNL1        0.2029
     24 N         137.3666  141.9459  162.4684 N.ar    1  UNL1       -0.1250
     25 N         137.7678  142.7125  161.2431 N.ar    1  UNL1       -0.1220
     26 C         139.1654  142.3068  160.8794 C.ar    1  UNL1        0.1933
     27 N         139.6279  141.2895  161.8799 N.ar    1  UNL1       -0.2860
     28 C         140.9670  140.6138  161.8956 C.3     1  UNL1        0.1341
     29 C         138.7011  137.8119  162.7072 C.3     1  UNL1        0.0556
     30 C         138.6334  138.6326  163.9610 C.ar    1  UNL1        0.1001
     31 N         138.6388  138.1014  165.3638 N.ar    1  UNL1       -0.2085
     32 C         138.5572  139.2690  166.3018 C.ar    1  UNL1        0.2849
     33 O         138.5014  140.5217  165.4788 O.2     1  UNL1       -0.4283
     34 C         138.5485  140.1285  164.0321 C.ar    1  UNL1        0.1964
@<TRIPOS>BOND
     1    29    30    1
     2    30    31   ar
     3    31    32   ar
     4    32    33   ar
     5    33    34   ar
     6    34    23    1
     7    23    24   ar
     8    24    25   ar
     9    25    26   ar
    10    26    22    1
    11    22    21    1
    12    21    20    1
    13    20    19    1
    14    19     1    1
    15     3     1    1
    16     3     4    1
    17     4     5    1
    18     5     6    1
    19     6     9    1
    20     9    10   ar
    21    10    11   ar
    22    11    12   ar
    23    12    15    1
    24    15    16    1
    25    15    17    1
    26    15    18    1
    27    12    13   ar
    28    13    14   ar
    29     6     7    1
    30     7     8    1
    31    26    27   ar
    32    27    28    1
    33    34    30   ar
    34    27    23   ar
    35     8     3    1
    36     8     6    1
    37    14     9   ar
    38     1     2    1
@<TRIPOS>MOLECULE
*****
 34 38 0 0 0
SMALL
GASTEIGER

@<TRIPOS>ATOM
      1 N         138.7299  145.2491  162.4654 N.3     1  UNL1       -0.2985
      2 H         138.3773  144.5140  161.8525 H       1  UNL1        0.1232
      3 C         139.2045  144.5767  163.7194 C.3     1  UNL1        0.0543
      4 C         138.6222  144.7553  165.0902 C.3     1  UNL1        0.0160
      5 C         139.4027  143.8966  166.0407 C.3     1  UNL1        0.0055
      6 C         140.4673  143.1874  165.2575 C.3     1  UNL1        0.0202
      7 C         141.4100  142.6335  164.2306 C.3     1  UNL1        0.0057
      8 C         140.3449  143.6077  163.8228 C.3     1  UNL1        0.0185
      9 C         141.0507  142.4445  166.4227 C.ar    1  UNL1       -0.0228
     10 C         140.6474  142.8071  167.8212 C.ar    1  UNL1       -0.0043
     11 C         141.2308  142.0642  168.9865 C.ar    1  UNL1        0.0035
     12 C         142.2175  140.9587  168.7532 C.ar    1  UNL1        0.0714
     13 C         142.6208  140.5961  167.3547 C.ar    1  UNL1        0.0035
     14 C         142.0374  141.3391  166.1894 C.ar    1  UNL1       -0.0043
     15 C         142.8009  140.2159  169.9185 C.3     1  UNL1        0.4186
     16 F         143.3842  139.4730  171.0837 F       1  UNL1       -0.1659
     17 F         143.8114  141.3079  170.1088 F       1  UNL1       -0.1659
     18 F         141.7904  139.1238  169.7282 F       1  UNL1       -0.1659
     19 C         139.6815  146.0734  161.6500 C.3     1  UNL1        0.0694
     20 C         140.7023  145.4003  160.7811 C.3     1  UNL1        0.0292
     21 C         140.3719  145.0668  159.3565 C.3     1  UNL1        0.0666
     22 S         139.9757  143.6683  158.9862 S.3     1  UNL1       -0.0756
     23 C         139.0196  140.9704  161.6077 C.ar    1  UNL1        0.2029
     24 N         137.7691  141.7981  161.5744 N.ar    1  UNL1       -0.1250
     25 N         137.9750  142.9094  160.5883 N.ar    1  UNL1       -0.1220
     26 C         139.3529  142.7686  160.0122 C.ar    1  UNL1        0.1933
     27 N         139.9984  141.5702  160.6423 N.ar    1  UNL1       -0.2860
     28 C         141.3802  141.0610  160.3570 C.3     1  UNL1        0.1341
     29 C         138.1530  140.6240  164.7348 C.3     1  UNL1        0.0556
     30 C         138.8524  139.5969  163.8948 C.ar    1  UNL1        0.1001
     31 N         139.2762  138.2300  164.3446 N.ar    1  UNL1       -0.2085
     32 C         139.9365  137.5446  163.1853 C.ar    1  UNL1        0.2849
     33 O         139.9208  138.4877  162.0190 O.2     1  UNL1       -0.4283
     34 C         139.2507  139.7560  162.4574 C.ar    1  UNL1        0.1964
@<TRIPOS>BOND
     1    29    30    1
     2    30    31   ar
     3    31    32   ar
     4    32    33   ar
     5    33    34   ar
     6    34    23    1
     7    23    24   ar
     8    24    25   ar
     9    25    26   ar
    10    26    22    1
    11    22    21    1
    12    21    20    1
    13    20    19    1
    14    19     1    1
    15     3     1    1
    16     3     4    1
    17     4     5    1
    18     5     6    1
    19     6     9    1
    20     9    10   ar
    21    10    11   ar
    22    11    12   ar
    23    12    15    1
    24    15    16    1
    25    15    17    1
    26    15    18    1
    27    12    13   ar
    28    13    14   ar
    29     6     7    1
    30     7     8    1
    31    26    27   ar
    32    27    28    1
    33    34    30   ar
    34    27    23   ar
    35     8     3    1
    36     8     6    1
    37    14     9   ar
    38     1     2    1
@<TRIPOS>MOLECULE
*****
 34 38 0 0 0
SMALL
GASTEIGER

@<TRIPOS>ATOM
      1 N         138.5981  137.3224  163.0275 N.3     1  UNL1       -0.2985
      2 H         139.1772  136.5539  162.6894 H       1  UNL1        0.1232
      3 C         139.4058  138.0516  164.0599 C.3     1  UNL1        0.0543
      4 C         140.8247  137.7514  164.4429 C.3     1  UNL1        0.0160
      5 C         141.2322  138.7232  165.5102 C.3     1  UNL1        0.0055
      6 C         140.0652  139.6241  165.7870 C.3     1  UNL1        0.0202
      7 C         138.7558  140.3537  165.8430 C.3     1  UNL1        0.0057
      8 C         138.9364  139.2090  164.8906 C.3     1  UNL1        0.0185
      9 C         140.7465  140.4435  166.8427 C.ar    1  UNL1       -0.0228
     10 C         139.9889  140.8728  168.0641 C.ar    1  UNL1       -0.0043
     11 C         140.6702  141.6921  169.1198 C.ar    1  UNL1        0.0035
     12 C         142.1092  142.0822  168.9541 C.ar    1  UNL1        0.0714
     13 C         142.8668  141.6529  167.7327 C.ar    1  UNL1        0.0035
     14 C         142.1854  140.8335  166.6770 C.ar    1  UNL1       -0.0043
     15 C         142.7905  142.9016  170.0097 C.3     1  UNL1        0.4186
     16 F         143.4718  143.7209  171.0654 F       1  UNL1       -0.1659
     17 F         143.9723  141.9790  169.9631 F       1  UNL1       -0.1659
     18 F         141.6087  143.8241  170.0564 F       1  UNL1       -0.1659
     19 C         138.0953  138.0510  161.8166 C.3     1  UNL1        0.0694
     20 C         138.9818  138.2143  160.6176 C.3     1  UNL1        0.0292
     21 C         138.9445  139.4872  159.8250 C.3     1  UNL1        0.0666
     22 S         138.2084  140.6808  160.3574 S.3     1  UNL1       -0.0756
     23 C         140.5929  143.4560  161.6527 C.ar    1  UNL1        0.2029
     24 N         139.6381  144.2595  160.8204 N.ar    1  UNL1       -0.1250
     25 N         138.6287  143.3178  160.2339 N.ar    1  UNL1       -0.1220
     26 C         138.9596  141.9321  160.7037 C.ar    1  UNL1        0.1933
     27 N         140.1735  142.0176  161.5806 N.ar    1  UNL1       -0.2860
     28 C         140.8494  140.8668  162.2652 C.3     1  UNL1        0.1341
     29 C         140.7908  143.7315  164.8984 C.3     1  UNL1        0.0556
     30 C         141.8528  144.1227  163.9140 C.ar    1  UNL1        0.1001
     31 N         143.1922  144.7093  164.2485 N.ar    1  UNL1       -0.2085
     32 C         143.9289  144.9452  162.9635 C.ar    1  UNL1        0.2849
     33 O         143.0449  144.5045  161.8347 O.2     1  UNL1       -0.4283
     34 C         141.7618  143.9961  162.4221 C.ar    1  UNL1        0.1964
@<TRIPOS>BOND
     1    29    30    1
     2    30    31   ar
     3    31    32   ar
     4    32    33   ar
     5    33    34   ar
     6    34    23    1
     7    23    24   ar
     8    24    25   ar
     9    25    26   ar
    10    26    22    1
    11    22    21    1
    12    21    20    1
    13    20    19    1
    14    19     1    1
    15     3     1    1
    16     3     4    1
    17     4     5    1
    18     5     6    1
    19     6     9    1
    20     9    10   ar
    21    10    11   ar
    22    11    12   ar
    23    12    15    1
    24    15    16    1
    25    15    17    1
    26    15    18    1
    27    12    13   ar
    28    13    14   ar
    29     6     7    1
    30     7     8    1
    31    26    27   ar
    32    27    28    1
    33    34    30   ar
    34    27    23   ar
    35     8     3    1
    36     8     6    1
    37    14     9   ar
    38     1     2    1
@<TRIPOS>MOLECULE
*****
 34 38 0 0 0
SMALL
GASTEIGER

@<TRIPOS>ATOM
      1 N         138.8776  137.4476  162.9194 N.3     1  UNL1       -0.2985
      2 H         139.3632  136.5662  162.7530 H       1  UNL1        0.1232
      3 C         139.6461  138.1708  163.9855 C.3     1  UNL1        0.0543
      4 C         141.0428  137.8560  164.4328 C.3     1  UNL1        0.0160
      5 C         141.4126  138.8264  165.5152 C.3     1  UNL1        0.0055
      6 C         140.2444  139.7409  165.7369 C.3     1  UNL1        0.0202
      7 C         138.9421  140.4850  165.7320 C.3     1  UNL1        0.0057
      8 C         139.1526  139.3357  164.7915 C.3     1  UNL1        0.0185
      9 C         140.8865  140.5556  166.8203 C.ar    1  UNL1       -0.0228
     10 C         142.3245  140.9647  166.6988 C.ar    1  UNL1       -0.0043
     11 C         142.9666  141.7795  167.7822 C.ar    1  UNL1        0.0035
     12 C         142.1707  142.1852  168.9872 C.ar    1  UNL1        0.0714
     13 C         140.7327  141.7761  169.1088 C.ar    1  UNL1        0.0035
     14 C         140.0906  140.9613  168.0252 C.ar    1  UNL1       -0.0043
     15 C         142.8128  143.0000  170.0707 C.3     1  UNL1        0.4186
     16 F         143.4549  143.8148  171.1541 F       1  UNL1       -0.1659
     17 F         141.6120  143.8982  170.1069 F       1  UNL1       -0.1659
     18 F         144.0136  142.1019  170.0344 F       1  UNL1       -0.1659
     19 C         138.6709  138.0880  161.5788 C.3     1  UNL1        0.0694
     20 C         137.4556  138.9313  161.3297 C.3     1  UNL1        0.0292
     21 C         137.4830  140.3977  161.6441 C.3     1  UNL1        0.0666
     22 S         138.5754  141.2633  161.0896 S.3     1  UNL1       -0.0756
     23 C         141.9049  141.8700  162.9899 C.ar    1  UNL1        0.2029
     24 N         141.0017  142.8592  163.6647 N.ar    1  UNL1       -0.1250
     25 N         139.6445  142.7524  163.0350 N.ar    1  UNL1       -0.1220
     26 C         139.7089  141.6970  161.9710 C.ar    1  UNL1        0.1933
     27 N         141.1060  141.1517  161.9431 N.ar    1  UNL1       -0.2860
     28 C         141.6148  140.0768  161.0289 C.3     1  UNL1        0.1341
     29 C         144.2771  144.1071  162.8572 C.3     1  UNL1        0.0556
     30 C         144.4433  142.6678  163.2453 C.ar    1  UNL1        0.1001
     31 N         145.7291  142.0040  163.6406 N.ar    1  UNL1       -0.2085
     32 C         145.4333  140.5655  163.9459 C.ar    1  UNL1        0.2849
     33 O         143.9649  140.3402  163.7393 O.2     1  UNL1       -0.4283
     34 C         143.3529  141.6395  163.3063 C.ar    1  UNL1        0.1964
@<TRIPOS>BOND
     1    29    30    1
     2    30    31   ar
     3    31    32   ar
     4    32    33   ar
     5    33    34   ar
     6    34    23    1
     7    23    24   ar
     8    24    25   ar
     9    25    26   ar
    10    26    22    1
    11    22    21    1
    12    21    20    1
    13    20    19    1
    14    19     1    1
    15     3     1    1
    16     3     4    1
    17     4     5    1
    18     5     6    1
    19     6     9    1
    20     9    10   ar
    21    10    11   ar
    22    11    12   ar
    23    12    15    1
    24    15    16    1
    25    15    17    1
    26    15    18    1
    27    12    13   ar
    28    13    14   ar
    29     6     7    1
    30     7     8    1
    31    26    27   ar
    32    27    28    1
    33    34    30   ar
    34    27    23   ar
    35     8     3    1
    36     8     6    1
    37    14     9   ar
    38     1     2    1
@<TRIPOS>MOLECULE
*****
 34 38 0 0 0
SMALL
GASTEIGER

@<TRIPOS>ATOM
      1 N         137.3879  139.6565  160.4002 N.3     1  UNL1       -0.2985
      2 H         137.0487  138.7337  160.1287 H       1  UNL1        0.1232
      3 C         137.8358  139.5505  161.8279 C.3     1  UNL1        0.0543
      4 C         138.4146  138.3311  162.4821 C.3     1  UNL1        0.0160
      5 C         138.7200  138.6722  163.9105 C.3     1  UNL1        0.0055
      6 C         138.3299  140.1025  164.1391 C.3     1  UNL1        0.0202
      7 C         137.8553  141.5235  164.0658 C.3     1  UNL1        0.0057
      8 C         137.7834  140.6453  162.8519 C.3     1  UNL1        0.0185
      9 C         138.7346  140.1466  165.5828 C.ar    1  UNL1       -0.0228
     10 C         139.8037  141.0974  166.0333 C.ar    1  UNL1       -0.0043
     11 C         140.2083  141.1415  167.4770 C.ar    1  UNL1        0.0035
     12 C         139.5439  140.2347  168.4702 C.ar    1  UNL1        0.0714
     13 C         138.4748  139.2839  168.0197 C.ar    1  UNL1        0.0035
     14 C         138.0701  139.2398  166.5759 C.ar    1  UNL1       -0.0043
     15 C         139.9485  140.2788  169.9139 C.3     1  UNL1        0.4186
     16 F         140.3532  140.3229  171.3576 F       1  UNL1       -0.1659
     17 F         138.7813  141.1718  170.2138 F       1  UNL1       -0.1659
     18 F         141.1158  139.3857  169.6140 F       1  UNL1       -0.1659
     19 C         138.3566  140.0908  159.3406 C.3     1  UNL1        0.0694
     20 C         139.4337  139.1541  158.8796 C.3     1  UNL1        0.0292
     21 C         140.2064  139.4566  157.6300 C.3     1  UNL1        0.0666
     22 S         141.4691  140.2628  157.7058 S.3     1  UNL1       -0.0756
     23 C         143.7525  140.1571  160.8428 C.ar    1  UNL1        0.2029
     24 N         144.2669  138.9789  160.0700 N.ar    1  UNL1       -0.1250
     25 N         143.4742  138.8750  158.8009 N.ar    1  UNL1       -0.1220
     26 C         142.4698  139.9891  158.7892 C.ar    1  UNL1        0.1933
     27 N         142.6418  140.7815  160.0512 N.ar    1  UNL1       -0.2860
     28 C         141.8433  141.9865  160.4513 C.3     1  UNL1        0.1341
     29 C         142.3556  139.5922  163.7374 C.3     1  UNL1        0.0556
     30 C         143.6176  140.3685  163.5040 C.ar    1  UNL1        0.1001
     31 N         144.4591  141.0216  164.5601 N.ar    1  UNL1       -0.2085
     32 C         145.6212  141.6848  163.8823 C.ar    1  UNL1        0.2849
     33 O         145.4980  141.4417  162.4073 O.2     1  UNL1       -0.4283
     34 C         144.2597  140.6282  162.1735 C.ar    1  UNL1        0.1964
@<TRIPOS>BOND
     1    29    30    1
     2    30    31   ar
     3    31    32   ar
     4    32    33   ar
     5    33    34   ar
     6    34    23    1
     7    23    24   ar
     8    24    25   ar
     9    25    26   ar
    10    26    22    1
    11    22    21    1
    12    21    20    1
    13    20    19    1
    14    19     1    1
    15     3     1    1
    16     3     4    1
    17     4     5    1
    18     5     6    1
    19     6     9    1
    20     9    10   ar
    21    10    11   ar
    22    11    12   ar
    23    12    15    1
    24    15    16    1
    25    15    17    1
    26    15    18    1
    27    12    13   ar
    28    13    14   ar
    29     6     7    1
    30     7     8    1
    31    26    27   ar
    32    27    28    1
    33    34    30   ar
    34    27    23   ar
    35     8     3    1
    36     8     6    1
    37    14     9   ar
    38     1     2    1
@<TRIPOS>MOLECULE
*****
 34 38 0 0 0
SMALL
GASTEIGER

@<TRIPOS>ATOM
      1 N         137.2169  140.0723  161.9014 N.3     1  UNL1       -0.2985
      2 H         136.9306  139.1098  162.0800 H       1  UNL1        0.1232
      3 C         137.8945  140.5608  163.1474 C.3     1  UNL1        0.0543
      4 C         138.4038  141.9512  163.3867 C.3     1  UNL1        0.0160
      5 C         139.0057  141.9943  164.7600 C.3     1  UNL1        0.0055
      6 C         138.8684  140.6305  165.3693 C.3     1  UNL1        0.0202
      7 C         138.5933  139.1950  165.7062 C.3     1  UNL1        0.0057
      8 C         138.1816  139.7445  164.3726 C.3     1  UNL1        0.0185
      9 C         139.5279  140.9737  166.6721 C.ar    1  UNL1       -0.0228
     10 C         140.2151  142.2966  166.8393 C.ar    1  UNL1       -0.0043
     11 C         140.8745  142.6398  168.1421 C.ar    1  UNL1        0.0035
     12 C         140.8468  141.6602  169.2778 C.ar    1  UNL1        0.0714
     13 C         140.1596  140.3373  169.1106 C.ar    1  UNL1        0.0035
     14 C         139.5001  139.9941  167.8077 C.ar    1  UNL1       -0.0043
     15 C         141.5063  142.0034  170.5806 C.3     1  UNL1        0.4186
     16 F         142.1657  142.3466  171.8833 F       1  UNL1       -0.1659
     17 F         141.0117  140.7158  171.1701 F       1  UNL1       -0.1659
     18 F         142.0008  143.2909  169.9910 F       1  UNL1       -0.1659
     19 C         137.9576  140.0688  160.5971 C.3     1  UNL1        0.0694
     20 C         138.8252  138.9014  160.2302 C.3     1  UNL1        0.0292
     21 C         139.4161  138.0389  161.3058 C.3     1  UNL1        0.0666
     22 S         140.8869  138.1016  161.5938 S.3     1  UNL1       -0.0756
     23 C         142.2439  141.2864  163.3490 C.ar    1  UNL1        0.2029
     24 N         142.2762  140.2980  164.4767 N.ar    1  UNL1       -0.1250
     25 N         141.7718  138.9846  163.9565 N.ar    1  UNL1       -0.1220
     26 C         141.4277  139.1614  162.5072 C.ar    1  UNL1        0.1933
     27 N         141.7195  140.5840  162.1318 N.ar    1  UNL1       -0.2860
     28 C         141.5216  141.1966  160.7770 C.3     1  UNL1        0.1341
     29 C         145.1982  142.4657  162.6202 C.3     1  UNL1        0.0556
     30 C         144.0204  143.2669  163.0901 C.ar    1  UNL1        0.1001
     31 N         143.9937  144.7508  163.3076 N.ar    1  UNL1       -0.2085
     32 C         142.6194  145.1259  163.7770 C.ar    1  UNL1        0.2849
     33 O         141.7966  143.8738  163.8496 O.2     1  UNL1       -0.4283
     34 C         142.6625  142.7248  163.4251 C.ar    1  UNL1        0.1964
@<TRIPOS>BOND
     1    29    30    1
     2    30    31   ar
     3    31    32   ar
     4    32    33   ar
     5    33    34   ar
     6    34    23    1
     7    23    24   ar
     8    24    25   ar
     9    25    26   ar
    10    26    22    1
    11    22    21    1
    12    21    20    1
    13    20    19    1
    14    19     1    1
    15     3     1    1
    16     3     4    1
    17     4     5    1
    18     5     6    1
    19     6     9    1
    20     9    10   ar
    21    10    11   ar
    22    11    12   ar
    23    12    15    1
    24    15    16    1
    25    15    17    1
    26    15    18    1
    27    12    13   ar
    28    13    14   ar
    29     6     7    1
    30     7     8    1
    31    26    27   ar
    32    27    28    1
    33    34    30   ar
    34    27    23   ar
    35     8     3    1
    36     8     6    1
    37    14     9   ar
    38     1     2    1
@<TRIPOS>MOLECULE
*****
 34 38 0 0 0
SMALL
GASTEIGER

@<TRIPOS>ATOM
      1 N         144.4272  138.4686  162.1294 N.3     1  UNL1       -0.2985
      2 H         144.9877  139.2587  161.8101 H       1  UNL1        0.1232
      3 C         143.6278  138.9511  163.3034 C.3     1  UNL1        0.0543
      4 C         142.4113  138.2854  163.8752 C.3     1  UNL1        0.0160
      5 C         141.9363  139.1070  165.0369 C.3     1  UNL1        0.0055
      6 C         142.8593  140.2804  165.1830 C.3     1  UNL1        0.0202
      7 C         143.9282  141.3278  165.0817 C.3     1  UNL1        0.0057
      8 C         143.9047  140.1840  164.1116 C.3     1  UNL1        0.0185
      9 C         142.1608  140.8830  166.3657 C.ar    1  UNL1       -0.0228
     10 C         140.7488  140.4890  166.6838 C.ar    1  UNL1       -0.0043
     11 C         140.0504  141.0915  167.8666 C.ar    1  UNL1        0.0035
     12 C         140.7639  142.0882  168.7314 C.ar    1  UNL1        0.0714
     13 C         142.1758  142.4821  168.4134 C.ar    1  UNL1        0.0035
     14 C         142.8743  141.8795  167.2305 C.ar    1  UNL1       -0.0043
     15 C         140.0654  142.6907  169.9142 C.3     1  UNL1        0.4186
     16 F         139.3669  143.2933  171.0970 F       1  UNL1       -0.1659
     17 F         140.9621  143.8904  169.8326 F       1  UNL1       -0.1659
     18 F         139.1687  141.4910  169.9959 F       1  UNL1       -0.1659
     19 C         143.7285  137.9172  160.9220 C.3     1  UNL1        0.0694
     20 C         143.0134  138.8417  159.9818 C.3     1  UNL1        0.0292
     21 C         143.7237  140.0381  159.4214 C.3     1  UNL1        0.0666
     22 S         142.9357  141.1693  158.8303 S.3     1  UNL1       -0.0756
     23 C         141.0380  143.5145  161.2726 C.ar    1  UNL1        0.2029
     24 N         142.1958  144.3827  160.8779 N.ar    1  UNL1       -0.1250
     25 N         143.0476  143.6099  159.9150 N.ar    1  UNL1       -0.1220
     26 C         142.4162  142.2640  159.7145 C.ar    1  UNL1        0.1933
     27 N         141.1742  142.2051  160.5536 N.ar    1  UNL1       -0.2860
     28 C         140.2336  141.0411  160.6556 C.3     1  UNL1        0.1341
     29 C         141.3441  143.9526  164.4919 C.3     1  UNL1        0.0556
     30 C         140.0780  144.0912  163.6996 C.ar    1  UNL1        0.1001
     31 N         138.7301  144.4555  164.2481 N.ar    1  UNL1       -0.2085
     32 C         137.7565  144.4793  163.1073 C.ar    1  UNL1        0.2849
     33 O         138.5026  144.1297  161.8538 O.2     1  UNL1       -0.4283
     34 C         139.9373  143.8898  162.2199 C.ar    1  UNL1        0.1964
@<TRIPOS>BOND
     1    29    30    1
     2    30    31   ar
     3    31    32   ar
     4    32    33   ar
     5    33    34   ar
     6    34    23    1
     7    23    24   ar
     8    24    25   ar
     9    25    26   ar
    10    26    22    1
    11    22    21    1
    12    21    20    1
    13    20    19    1
    14    19     1    1
    15     3     1    1
    16     3     4    1
    17     4     5    1
    18     5     6    1
    19     6     9    1
    20     9    10   ar
    21    10    11   ar
    22    11    12   ar
    23    12    15    1
    24    15    16    1
    25    15    17    1
    26    15    18    1
    27    12    13   ar
    28    13    14   ar
    29     6     7    1
    30     7     8    1
    31    26    27   ar
    32    27    28    1
    33    34    30   ar
    34    27    23   ar
    35     8     3    1
    36     8     6    1
    37    14     9   ar
    38     1     2    1
@<TRIPOS>MOLECULE
*****
 34 38 0 0 0
SMALL
GASTEIGER

@<TRIPOS>ATOM
      1 N         137.2553  138.9680  161.4329 N.3     1  UNL1       -0.2985
      2 H         137.5637  138.0383  161.1483 H       1  UNL1        0.1232
      3 C         137.9885  139.2989  162.6989 C.3     1  UNL1        0.0543
      4 C         137.8349  140.5550  163.5042 C.3     1  UNL1        0.0160
      5 C         138.7556  140.4641  164.6849 C.3     1  UNL1        0.0055
      6 C         139.4781  139.1518  164.6094 C.3     1  UNL1        0.0202
      7 C         140.0324  137.7994  164.2723 C.3     1  UNL1        0.0057
      8 C         139.0041  138.4316  163.3820 C.3     1  UNL1        0.0185
      9 C         140.2829  139.3436  165.8606 C.ar    1  UNL1       -0.0228
     10 C         139.6415  139.9327  167.0819 C.ar    1  UNL1       -0.0043
     11 C         140.4463  140.1246  168.3331 C.ar    1  UNL1        0.0035
     12 C         141.8925  139.7273  168.3631 C.ar    1  UNL1        0.0714
     13 C         142.5338  139.1382  167.1417 C.ar    1  UNL1        0.0035
     14 C         141.7290  138.9464  165.8905 C.ar    1  UNL1       -0.0043
     15 C         142.6972  139.9192  169.6143 C.3     1  UNL1        0.4186
     16 F         143.5020  140.1110  170.8655 F       1  UNL1       -0.1659
     17 F         142.5410  138.4629  169.9380 F       1  UNL1       -0.1659
     18 F         142.8535  141.3754  169.2905 F       1  UNL1       -0.1659
     19 C         137.3933  139.8564  160.2322 C.3     1  UNL1        0.0694
     20 C         138.6946  139.9155  159.4885 C.3     1  UNL1        0.0292
     21 C         138.9271  140.9900  158.4680 C.3     1  UNL1        0.0666
     22 S         138.7030  142.4285  158.8293 S.3     1  UNL1       -0.0756
     23 C         140.6082  143.6283  161.9909 C.ar    1  UNL1        0.2029
     24 N         139.1864  143.8822  162.3956 N.ar    1  UNL1       -0.1250
     25 N         138.2996  143.4637  161.2605 N.ar    1  UNL1       -0.1220
     26 C         139.1735  142.9511  160.1542 C.ar    1  UNL1        0.1933
     27 N         140.6003  143.0529  160.6057 N.ar    1  UNL1       -0.2860
     28 C         141.8072  142.6499  159.8114 C.3     1  UNL1        0.1341
     29 C         142.4937  141.3849  163.4268 C.3     1  UNL1        0.0556
     30 C         142.6912  142.8707  163.4850 C.ar    1  UNL1        0.1001
     31 N         143.7901  143.5863  164.2135 N.ar    1  UNL1       -0.2085
     32 C         143.6025  145.0595  164.0036 C.ar    1  UNL1        0.2849
     33 O         142.3878  145.2546  163.1455 O.2     1  UNL1       -0.4283
     34 C         141.8246  143.9019  162.8250 C.ar    1  UNL1        0.1964
@<TRIPOS>BOND
     1    29    30    1
     2    30    31   ar
     3    31    32   ar
     4    32    33   ar
     5    33    34   ar
     6    34    23    1
     7    23    24   ar
     8    24    25   ar
     9    25    26   ar
    10    26    22    1
    11    22    21    1
    12    21    20    1
    13    20    19    1
    14    19     1    1
    15     3     1    1
    16     3     4    1
    17     4     5    1
    18     5     6    1
    19     6     9    1
    20     9    10   ar
    21    10    11   ar
    22    11    12   ar
    23    12    15    1
    24    15    16    1
    25    15    17    1
    26    15    18    1
    27    12    13   ar
    28    13    14   ar
    29     6     7    1
    30     7     8    1
    31    26    27   ar
    32    27    28    1
    33    34    30   ar
    34    27    23   ar
    35     8     3    1
    36     8     6    1
    37    14     9   ar
    38     1     2    1
@<TRIPOS>MOLECULE
*****
 34 38 0 0 0
SMALL
GASTEIGER

@<TRIPOS>ATOM
      1 N         137.1561  140.3653  161.7052 N.3     1  UNL1       -0.2985
      2 H         136.1566  140.2758  161.8879 H       1  UNL1        0.1232
      3 C         137.7955  140.7907  162.9937 C.3     1  UNL1        0.0543
      4 C         138.0131  142.2044  163.4454 C.3     1  UNL1        0.0160
      5 C         138.6816  142.1644  164.7876 C.3     1  UNL1        0.0055
      6 C         138.8772  140.7260  165.1654 C.3     1  UNL1        0.0202
      7 C         138.9356  139.2307  165.2670 C.3     1  UNL1        0.0057
      8 C         138.3296  139.8770  164.0567 C.3     1  UNL1        0.0185
      9 C         139.5335  140.9987  166.4863 C.ar    1  UNL1       -0.0228
     10 C         139.4619  139.9790  167.5841 C.ar    1  UNL1       -0.0043
     11 C         140.1182  140.2517  168.9050 C.ar    1  UNL1        0.0035
     12 C         140.8462  141.5441  169.1282 C.ar    1  UNL1        0.0714
     13 C         140.9178  142.5639  168.0305 C.ar    1  UNL1        0.0035
     14 C         140.2614  142.2911  166.7095 C.ar    1  UNL1       -0.0043
     15 C         141.5025  141.8168  170.4492 C.3     1  UNL1        0.4186
     16 F         142.1588  142.0895  171.7701 F       1  UNL1       -0.1659
     17 F         142.8361  141.4660  169.8589 F       1  UNL1       -0.1659
     18 F         140.1689  142.1676  171.0394 F       1  UNL1       -0.1659
     19 C         137.5895  139.0944  161.0366 C.3     1  UNL1        0.0694
     20 C         138.9591  138.9936  160.4330 C.3     1  UNL1        0.0292
     21 C         139.1623  139.3008  158.9790 C.3     1  UNL1        0.0666
     22 S         140.4477  139.9197  158.5157 S.3     1  UNL1       -0.0756
     23 C         143.4025  140.0372  161.0299 C.ar    1  UNL1        0.2029
     24 N         143.8410  138.9291  160.1189 N.ar    1  UNL1       -0.1250
     25 N         142.7875  138.7502  159.0663 N.ar    1  UNL1       -0.1220
     26 C         141.6979  139.7478  159.3266 C.ar    1  UNL1        0.1933
     27 N         142.0780  140.5432  160.5402 N.ar    1  UNL1       -0.2860
     28 C         141.2747  141.6501  161.1560 C.3     1  UNL1        0.1341
     29 C         142.6248  139.5239  164.1574 C.3     1  UNL1        0.0556
     30 C         143.7987  140.3134  163.6589 C.ar    1  UNL1        0.1001
     31 N         144.8213  141.0057  164.5105 N.ar    1  UNL1       -0.2085
     32 C         145.8107  141.6695  163.5992 C.ar    1  UNL1        0.2849
     33 O         145.3996  141.3875  162.1845 O.2     1  UNL1       -0.4283
     34 C         144.1562  140.5494  162.2213 C.ar    1  UNL1        0.1964
@<TRIPOS>BOND
     1    29    30    1
     2    30    31   ar
     3    31    32   ar
     4    32    33   ar
     5    33    34   ar
     6    34    23    1
     7    23    24   ar
     8    24    25   ar
     9    25    26   ar
    10    26    22    1
    11    22    21    1
    12    21    20    1
    13    20    19    1
    14    19     1    1
    15     3     1    1
    16     3     4    1
    17     4     5    1
    18     5     6    1
    19     6     9    1
    20     9    10   ar
    21    10    11   ar
    22    11    12   ar
    23    12    15    1
    24    15    16    1
    25    15    17    1
    26    15    18    1
    27    12    13   ar
    28    13    14   ar
    29     6     7    1
    30     7     8    1
    31    26    27   ar
    32    27    28    1
    33    34    30   ar
    34    27    23   ar
    35     8     3    1
    36     8     6    1
    37    14     9   ar
    38     1     2    1
