@<TRIPOS>MOLECULE
*****
 38 43 0 0 0
SMALL
GASTEIGER

@<TRIPOS>ATOM
      1 C         137.7723  142.9030  163.3751 C.3     1  UNL1        0.0932
      2 C         137.7156  141.7257  164.3028 C.3     1  UNL1        0.0286
      3 C         137.7664  140.3322  163.7500 C.3     1  UNL1        0.0193
      4 C         137.8740  140.1161  162.2696 C.3     1  UNL1        0.0700
      5 C         137.9307  141.2934  161.3419 C.3     1  UNL1        0.0193
      6 C         137.8799  142.6869  161.8947 C.3     1  UNL1        0.0286
      7 C         137.8493  140.8982  162.5257 C.3     1  UNL1        0.1562
      8 O         137.8034  142.1582  163.0255 O.3     1  UNL1       -0.3572
      9 N         137.9248  138.7225  161.7168 N.3     1  UNL1       -0.2926
     10 H         137.3118  138.7065  160.9018 H       1  UNL1        0.1236
     11 C         139.2353  138.1344  161.2846 C.3     1  UNL1        0.1152
     12 C         140.4521  138.3003  162.1458 C.ar    1  UNL1        0.0765
     13 C         140.6289  137.4468  163.3666 C.ar    1  UNL1        0.0193
     14 C         141.8459  137.6127  164.2278 C.ar    1  UNL1        0.0411
     15 C         142.8859  138.6319  163.8682 C.ar    1  UNL1        0.1708
     16 C         142.7091  139.4854  162.6474 C.ar    1  UNL1        0.1682
     17 N         141.4923  139.3196  161.7862 N.ar    1  UNL1       -0.2304
     18 N         143.7493  140.5047  162.2878 N.am    1  UNL1       -0.2639
     19 C         144.9661  140.6705  163.1490 C.2     1  UNL1        0.2718
     20 O         146.0062  141.6897  162.7894 O.2     1  UNL1       -0.2707
     21 C         145.1429  139.8170  164.3698 C.3     1  UNL1        0.2898
     22 O         144.1029  138.7978  164.7294 O.3     1  UNL1       -0.4628
     23 H         143.6332  141.0648  161.4866 H       1  UNL1        0.1565
     24 C         137.7215  144.2966  163.9279 C.3     1  UNL1        0.0319
     25 C         138.8885  144.8415  164.6967 C.3     1  UNL1        0.0301
     26 C         140.9223  142.0023  167.5345 C.ar    1  UNL1        0.2250
     27 C         142.3091  141.5125  167.2398 C.ar    1  UNL1        0.0593
     28 C         143.0180  141.9691  165.9992 C.ar    1  UNL1        0.0254
     29 C         142.3401  142.9155  165.0533 C.ar    1  UNL1        0.0988
     30 N         143.0490  143.3721  163.8127 N.ar    1  UNL1       -0.2427
     31 C         142.3711  144.3184  162.8668 C.ar    1  UNL1        0.0943
     32 C         140.9842  144.8083  163.1615 C.ar    1  UNL1       -0.0052
     33 C         140.3063  145.7546  162.2156 C.3     1  UNL1        0.0324
     34 C         140.2753  144.3517  164.4021 C.ar    1  UNL1       -0.0053
     35 C         140.9533  143.4053  165.3480 C.ar    1  UNL1        0.0977
     36 N         140.2444  142.9487  166.5886 N.ar    1  UNL1       -0.2105
     37 C         139.4971  140.2280  168.7875 C.3     1  UNL1        0.2542
     38 O         140.2135  141.5457  168.7750 O.3     1  UNL1       -0.4561
@<TRIPOS>BOND
     1    37    38    1
     2    38    26    1
     3    26    27   ar
     4    27    28   ar
     5    28    29   ar
     6    29    30   ar
     7    30    31   ar
     8    31    32   ar
     9    32    33    1
    10    32    34   ar
    11    34    25    1
    12    25    24    1
    13    24     1    1
    14     1     2    1
    15     2     3    1
    16     3     4    1
    17     4     9    1
    18     9    11    1
    19    11    12    1
    20    12    13   ar
    21    13    14   ar
    22    14    15   ar
    23    15    16   ar
    24    16    17   ar
    25    16    18    1
    26    18    19   am
    27    19    20    2
    28    19    21    1
    29    21    22    1
    30     4     5    1
    31     5     6    1
    32     4     7    1
    33     7     8    1
    34    34    35   ar
    35    35    36   ar
    36    36    26   ar
    37    35    29   ar
    38     6     1    1
    39     8     1    1
    40    17    12   ar
    41    22    15    1
    42     9    10    1
    43    18    23    1
@<TRIPOS>MOLECULE
*****
 38 43 0 0 0
SMALL
GASTEIGER

@<TRIPOS>ATOM
      1 C         141.7802  138.0615  164.2930 C.3     1  UNL1        0.0932
      2 C         141.9831  138.4397  162.8558 C.3     1  UNL1        0.0286
      3 C         143.2152  139.1898  162.4444 C.3     1  UNL1        0.0193
      4 C         144.2444  139.5616  163.4703 C.3     1  UNL1        0.0700
      5 C         144.0416  139.1833  164.9075 C.3     1  UNL1        0.0193
      6 C         142.8094  138.4333  165.3189 C.3     1  UNL1        0.0286
      7 C         143.5855  139.1505  163.7435 C.3     1  UNL1        0.1562
      8 O         142.4713  138.4723  164.1155 O.3     1  UNL1       -0.3572
      9 N         145.4766  140.3116  163.0588 N.3     1  UNL1       -0.2926
     10 H         145.5697  140.1941  162.0499 H       1  UNL1        0.1236
     11 C         145.5871  141.7817  163.3355 C.3     1  UNL1        0.1152
     12 C         144.3795  142.6620  163.2065 C.ar    1  UNL1        0.0765
     13 C         143.6622  143.1361  164.4357 C.ar    1  UNL1        0.0193
     14 C         142.4545  144.0164  164.3067 C.ar    1  UNL1        0.0411
     15 C         141.9641  144.4225  162.9486 C.ar    1  UNL1        0.1708
     16 C         142.6813  143.9484  161.7194 C.ar    1  UNL1        0.1682
     17 N         143.8890  143.0682  161.8484 N.ar    1  UNL1       -0.2304
     18 N         142.1908  144.3546  160.3613 N.am    1  UNL1       -0.2639
     19 C         140.9831  145.2348  160.2323 C.2     1  UNL1        0.2718
     20 O         140.4927  145.6410  158.8742 O.2     1  UNL1       -0.2707
     21 C         140.2659  145.7089  161.4615 C.3     1  UNL1        0.2898
     22 O         140.7564  145.3028  162.8196 O.3     1  UNL1       -0.4628
     23 H         142.6615  144.0434  159.5545 H       1  UNL1        0.1565
     24 C         140.5480  137.3114  164.7045 C.3     1  UNL1        0.0319
     25 C         139.3053  138.0610  165.0837 C.3     1  UNL1        0.0301
     26 C         140.6803  140.7499  168.4197 C.ar    1  UNL1        0.2250
     27 C         140.6231  142.2396  168.2541 C.ar    1  UNL1        0.0593
     28 C         140.1076  142.8330  166.9766 C.ar    1  UNL1        0.0254
     29 C         139.6492  141.9368  165.8646 C.ar    1  UNL1        0.0988
     30 N         139.1337  142.5302  164.5871 N.ar    1  UNL1       -0.2427
     31 C         138.6754  141.6339  163.4751 C.ar    1  UNL1        0.0943
     32 C         138.7326  140.1441  163.6406 C.ar    1  UNL1       -0.0052
     33 C         138.2742  139.2479  162.5286 C.3     1  UNL1        0.0324
     34 C         139.2481  139.5507  164.9181 C.ar    1  UNL1       -0.0053
     35 C         139.7065  140.4471  166.0302 C.ar    1  UNL1        0.0977
     36 N         140.2220  139.8536  167.3077 N.ar    1  UNL1       -0.2105
     37 C         142.4799  139.3811  169.6994 C.3     1  UNL1        0.2542
     38 O         141.1959  140.1565  169.6972 O.3     1  UNL1       -0.4561
@<TRIPOS>BOND
     1    37    38    1
     2    38    26    1
     3    26    27   ar
     4    27    28   ar
     5    28    29   ar
     6    29    30   ar
     7    30    31   ar
     8    31    32   ar
     9    32    33    1
    10    32    34   ar
    11    34    25    1
    12    25    24    1
    13    24     1    1
    14     1     2    1
    15     2     3    1
    16     3     4    1
    17     4     9    1
    18     9    11    1
    19    11    12    1
    20    12    13   ar
    21    13    14   ar
    22    14    15   ar
    23    15    16   ar
    24    16    17   ar
    25    16    18    1
    26    18    19   am
    27    19    20    2
    28    19    21    1
    29    21    22    1
    30     4     5    1
    31     5     6    1
    32     4     7    1
    33     7     8    1
    34    34    35   ar
    35    35    36   ar
    36    36    26   ar
    37    35    29   ar
    38     6     1    1
    39     8     1    1
    40    17    12   ar
    41    22    15    1
    42     9    10    1
    43    18    23    1
@<TRIPOS>MOLECULE
*****
 38 43 0 0 0
SMALL
GASTEIGER

@<TRIPOS>ATOM
      1 C         141.5763  138.5830  164.5663 C.3     1  UNL1        0.0932
      2 C         142.7787  138.7057  165.4546 C.3     1  UNL1        0.0286
      3 C         144.0384  139.3282  164.9298 C.3     1  UNL1        0.0193
      4 C         144.0957  139.8280  163.5167 C.3     1  UNL1        0.0700
      5 C         142.8933  139.7054  162.6284 C.3     1  UNL1        0.0193
      6 C         141.6336  139.0828  163.1532 C.3     1  UNL1        0.0286
      7 C         143.3833  139.4943  163.7595 C.3     1  UNL1        0.1562
      8 O         142.2442  138.9314  164.2341 O.3     1  UNL1       -0.3572
      9 N         145.3556  140.4506  162.9919 N.3     1  UNL1       -0.2926
     10 H         145.3989  140.2331  161.9963 H       1  UNL1        0.1236
     11 C         145.5721  141.9292  163.1219 C.3     1  UNL1        0.1152
     12 C         144.4064  142.8687  163.0308 C.ar    1  UNL1        0.0765
     13 C         143.8769  143.5292  164.2691 C.ar    1  UNL1        0.0193
     14 C         142.7111  144.4688  164.1779 C.ar    1  UNL1        0.0411
     15 C         142.0749  144.7478  162.8485 C.ar    1  UNL1        0.1708
     16 C         142.6044  144.0873  161.6102 C.ar    1  UNL1        0.1682
     17 N         143.7701  143.1477  161.7013 N.ar    1  UNL1       -0.2304
     18 N         141.9681  144.3663  160.2807 N.am    1  UNL1       -0.2639
     19 C         140.8024  145.3058  160.1896 C.2     1  UNL1        0.2718
     20 O         140.1662  145.5848  158.8602 O.2     1  UNL1       -0.2707
     21 C         140.2729  145.9664  161.4279 C.3     1  UNL1        0.2898
     22 O         140.9091  145.6874  162.7573 O.3     1  UNL1       -0.4628
     23 H         142.3157  143.9328  159.4680 H       1  UNL1        0.1565
     24 C         140.3164  137.9604  165.0911 C.3     1  UNL1        0.0319
     25 C         139.3421  138.7873  165.8766 C.3     1  UNL1        0.0301
     26 C         137.8114  141.4597  162.5956 C.ar    1  UNL1        0.2250
     27 C         137.9948  142.9453  162.6915 C.ar    1  UNL1        0.0593
     28 C         138.6884  143.5402  163.8811 C.ar    1  UNL1        0.0254
     29 C         139.1986  142.6494  164.9747 C.ar    1  UNL1        0.0988
     30 N         139.8922  143.2442  166.1643 N.ar    1  UNL1       -0.2427
     31 C         140.4025  142.3534  167.2579 C.ar    1  UNL1        0.0943
     32 C         140.2191  140.8677  167.1621 C.ar    1  UNL1       -0.0052
     33 C         140.7293  139.9769  168.2557 C.3     1  UNL1        0.0324
     34 C         139.5255  140.2729  165.9725 C.ar    1  UNL1       -0.0053
     35 C         139.0152  141.1638  164.8788 C.ar    1  UNL1        0.0977
     36 N         138.3216  140.5689  163.6892 N.ar    1  UNL1       -0.2105
     37 C         137.5643  139.5402  160.8623 C.3     1  UNL1        0.2542
     38 O         137.1178  140.8649  161.4060 O.3     1  UNL1       -0.4561
@<TRIPOS>BOND
     1    37    38    1
     2    38    26    1
     3    26    27   ar
     4    27    28   ar
     5    28    29   ar
     6    29    30   ar
     7    30    31   ar
     8    31    32   ar
     9    32    33    1
    10    32    34   ar
    11    34    25    1
    12    25    24    1
    13    24     1    1
    14     1     2    1
    15     2     3    1
    16     3     4    1
    17     4     9    1
    18     9    11    1
    19    11    12    1
    20    12    13   ar
    21    13    14   ar
    22    14    15   ar
    23    15    16   ar
    24    16    17   ar
    25    16    18    1
    26    18    19   am
    27    19    20    2
    28    19    21    1
    29    21    22    1
    30     4     5    1
    31     5     6    1
    32     4     7    1
    33     7     8    1
    34    34    35   ar
    35    35    36   ar
    36    36    26   ar
    37    35    29   ar
    38     6     1    1
    39     8     1    1
    40    17    12   ar
    41    22    15    1
    42     9    10    1
    43    18    23    1
@<TRIPOS>MOLECULE
*****
 38 43 0 0 0
SMALL
GASTEIGER

@<TRIPOS>ATOM
      1 C         139.5771  137.9483  164.3933 C.3     1  UNL1        0.0932
      2 C         140.9976  137.6597  164.7793 C.3     1  UNL1        0.0286
      3 C         142.0474  137.5099  163.7185 C.3     1  UNL1        0.0193
      4 C         141.6768  137.6487  162.2717 C.3     1  UNL1        0.0700
      5 C         140.2564  137.9373  161.8856 C.3     1  UNL1        0.0193
      6 C         139.2066  138.0871  162.9464 C.3     1  UNL1        0.0286
      7 C         141.0669  137.7391  162.8172 C.3     1  UNL1        0.1562
      8 O         140.1176  137.8745  163.7765 O.3     1  UNL1       -0.3572
      9 N         142.7267  137.4989  161.2108 N.3     1  UNL1       -0.2926
     10 H         142.2479  137.5580  160.3122 H       1  UNL1        0.1236
     11 C         143.8767  138.4602  161.1527 C.3     1  UNL1        0.1152
     12 C         143.6819  139.8885  161.5674 C.ar    1  UNL1        0.0765
     13 C         142.8278  140.8006  160.7377 C.ar    1  UNL1        0.0193
     14 C         142.6331  142.2289  161.1524 C.ar    1  UNL1        0.0411
     15 C         143.2924  142.7451  162.3969 C.ar    1  UNL1        0.1708
     16 C         144.1466  141.8330  163.2267 C.ar    1  UNL1        0.1682
     17 N         144.3413  140.4047  162.8120 N.ar    1  UNL1       -0.2304
     18 N         144.8059  142.3492  164.4712 N.am    1  UNL1       -0.2639
     19 C         144.6112  143.7775  164.8859 C.2     1  UNL1        0.2718
     20 O         145.2705  144.2937  166.1304 O.2     1  UNL1       -0.2707
     21 C         143.7570  144.6896  164.0562 C.3     1  UNL1        0.2898
     22 O         143.0977  144.1735  162.8117 O.3     1  UNL1       -0.4628
     23 H         145.3665  141.7506  165.0158 H       1  UNL1        0.1565
     24 C         138.5272  138.0981  165.4541 C.3     1  UNL1        0.0319
     25 C         138.1600  139.4622  165.9585 C.3     1  UNL1        0.0301
     26 C         141.7543  140.1973  168.5642 C.ar    1  UNL1        0.2250
     27 C         142.6537  141.3658  168.2892 C.ar    1  UNL1        0.0593
     28 C         142.3549  142.2894  167.1456 C.ar    1  UNL1        0.0254
     29 C         141.1568  142.0443  166.2771 C.ar    1  UNL1        0.0988
     30 N         140.8580  142.9679  165.1335 N.ar    1  UNL1       -0.2427
     31 C         139.6599  142.7228  164.2649 C.ar    1  UNL1        0.0943
     32 C         138.7605  141.5542  164.5399 C.ar    1  UNL1       -0.0052
     33 C         137.5624  141.3092  163.6713 C.3     1  UNL1        0.0324
     34 C         139.0593  140.6307  165.6835 C.ar    1  UNL1       -0.0053
     35 C         140.2575  140.8758  166.5521 C.ar    1  UNL1        0.0977
     36 N         140.5562  139.9523  167.6957 N.ar    1  UNL1       -0.2105
     37 C         142.9661  139.7181  170.8119 C.3     1  UNL1        0.2542
     38 O         142.0531  139.2737  169.7078 O.3     1  UNL1       -0.4561
@<TRIPOS>BOND
     1    37    38    1
     2    38    26    1
     3    26    27   ar
     4    27    28   ar
     5    28    29   ar
     6    29    30   ar
     7    30    31   ar
     8    31    32   ar
     9    32    33    1
    10    32    34   ar
    11    34    25    1
    12    25    24    1
    13    24     1    1
    14     1     2    1
    15     2     3    1
    16     3     4    1
    17     4     9    1
    18     9    11    1
    19    11    12    1
    20    12    13   ar
    21    13    14   ar
    22    14    15   ar
    23    15    16   ar
    24    16    17   ar
    25    16    18    1
    26    18    19   am
    27    19    20    2
    28    19    21    1
    29    21    22    1
    30     4     5    1
    31     5     6    1
    32     4     7    1
    33     7     8    1
    34    34    35   ar
    35    35    36   ar
    36    36    26   ar
    37    35    29   ar
    38     6     1    1
    39     8     1    1
    40    17    12   ar
    41    22    15    1
    42     9    10    1
    43    18    23    1
@<TRIPOS>MOLECULE
*****
 38 43 0 0 0
SMALL
GASTEIGER

@<TRIPOS>ATOM
      1 C         144.5498  140.2427  163.5053 C.3     1  UNL1        0.0932
      2 C         143.9351  139.3047  164.5014 C.3     1  UNL1        0.0286
      3 C         142.8721  138.3400  164.0664 C.3     1  UNL1        0.0193
      4 C         142.4239  138.3131  162.6351 C.3     1  UNL1        0.0700
      5 C         143.0387  139.2510  161.6390 C.3     1  UNL1        0.0193
      6 C         144.1016  140.2158  162.0741 C.3     1  UNL1        0.0286
      7 C         143.0095  138.8594  162.8264 C.3     1  UNL1        0.1562
      8 O         143.9707  139.7318  163.2198 O.3     1  UNL1       -0.3572
      9 N         141.3609  137.3483  162.2001 N.3     1  UNL1       -0.2926
     10 H         141.2457  136.6756  162.9582 H       1  UNL1        0.1236
     11 C         139.9901  137.8489  161.8533 C.3     1  UNL1        0.1152
     12 C         139.4105  139.0194  162.5907 C.ar    1  UNL1        0.0765
     13 C         138.8275  138.8296  163.9596 C.ar    1  UNL1        0.0193
     14 C         138.2479  140.0002  164.6970 C.ar    1  UNL1        0.0411
     15 C         138.2511  141.3607  164.0653 C.ar    1  UNL1        0.1708
     16 C         138.8341  141.5506  162.6963 C.ar    1  UNL1        0.1682
     17 N         139.4137  140.3800  161.9590 N.ar    1  UNL1       -0.2304
     18 N         138.8373  142.9112  162.0646 N.am    1  UNL1       -0.2639
     19 C         138.2577  144.0817  162.8020 C.2     1  UNL1        0.2718
     20 O         138.2609  145.4422  162.1703 O.2     1  UNL1       -0.2707
     21 C         137.6747  143.8919  164.1709 C.3     1  UNL1        0.2898
     22 O         137.6715  142.5314  164.8026 O.3     1  UNL1       -0.4628
     23 H         139.2199  143.0358  161.1661 H       1  UNL1        0.1565
     24 C         145.6128  141.2075  163.9403 C.3     1  UNL1        0.0319
     25 C         145.2334  142.4642  164.6661 C.3     1  UNL1        0.0301
     26 C         142.4821  141.2207  168.0028 C.ar    1  UNL1        0.2250
     27 C         141.0546  141.6815  168.0089 C.ar    1  UNL1        0.0593
     28 C         140.5443  142.5567  166.9027 C.ar    1  UNL1        0.0254
     29 C         141.4614  142.9712  165.7905 C.ar    1  UNL1        0.0988
     30 N         140.9510  143.8465  164.6844 N.ar    1  UNL1       -0.2427
     31 C         141.8681  144.2610  163.5722 C.ar    1  UNL1        0.0943
     32 C         143.2956  143.8002  163.5661 C.ar    1  UNL1       -0.0052
     33 C         144.2127  144.2147  162.4538 C.3     1  UNL1        0.0324
     34 C         143.8060  142.9250  164.6722 C.ar    1  UNL1       -0.0053
     35 C         142.8888  142.5105  165.7844 C.ar    1  UNL1        0.0977
     36 N         143.3992  141.6352  166.8905 N.ar    1  UNL1       -0.2105
     37 C         142.3652  140.4142  170.4697 C.3     1  UNL1        0.2542
     38 O         142.9924  140.3455  169.1089 O.3     1  UNL1       -0.4561
@<TRIPOS>BOND
     1    37    38    1
     2    38    26    1
     3    26    27   ar
     4    27    28   ar
     5    28    29   ar
     6    29    30   ar
     7    30    31   ar
     8    31    32   ar
     9    32    33    1
    10    32    34   ar
    11    34    25    1
    12    25    24    1
    13    24     1    1
    14     1     2    1
    15     2     3    1
    16     3     4    1
    17     4     9    1
    18     9    11    1
    19    11    12    1
    20    12    13   ar
    21    13    14   ar
    22    14    15   ar
    23    15    16   ar
    24    16    17   ar
    25    16    18    1
    26    18    19   am
    27    19    20    2
    28    19    21    1
    29    21    22    1
    30     4     5    1
    31     5     6    1
    32     4     7    1
    33     7     8    1
    34    34    35   ar
    35    35    36   ar
    36    36    26   ar
    37    35    29   ar
    38     6     1    1
    39     8     1    1
    40    17    12   ar
    41    22    15    1
    42     9    10    1
    43    18    23    1
@<TRIPOS>MOLECULE
*****
 38 43 0 0 0
SMALL
GASTEIGER

@<TRIPOS>ATOM
      1 C         140.0737  137.8294  164.3824 C.3     1  UNL1        0.0932
      2 C         139.9255  137.7228  162.8936 C.3     1  UNL1        0.0286
      3 C         141.1349  137.8150  162.0111 C.3     1  UNL1        0.0193
      4 C         142.4924  138.0139  162.6173 C.3     1  UNL1        0.0700
      5 C         142.6406  138.1205  164.1062 C.3     1  UNL1        0.0193
      6 C         141.4312  138.0282  164.9887 C.3     1  UNL1        0.0286
      7 C         141.8591  137.9693  163.1415 C.3     1  UNL1        0.1562
      8 O         140.7655  137.8858  163.9395 O.3     1  UNL1       -0.3572
      9 N         143.7018  138.1062  161.7347 N.3     1  UNL1       -0.2926
     10 H         143.5541  137.4547  160.9639 H       1  UNL1        0.1236
     11 C         144.0852  139.4210  161.1230 C.3     1  UNL1        0.1152
     12 C         143.8725  140.6941  161.8870 C.ar    1  UNL1        0.0765
     13 C         144.7483  141.0200  163.0603 C.ar    1  UNL1        0.0193
     14 C         144.5355  142.2932  163.8244 C.ar    1  UNL1        0.0411
     15 C         143.4469  143.2404  163.4151 C.ar    1  UNL1        0.1708
     16 C         142.5710  142.9146  162.2418 C.ar    1  UNL1        0.1682
     17 N         142.7838  141.6414  161.4778 N.ar    1  UNL1       -0.2304
     18 N         141.4824  143.8619  161.8325 N.am    1  UNL1       -0.2639
     19 C         141.2696  145.1351  162.5966 C.2     1  UNL1        0.2718
     20 O         140.1810  146.0823  162.1873 O.2     1  UNL1       -0.2707
     21 C         142.1455  145.4609  163.7699 C.3     1  UNL1        0.2898
     22 O         143.2341  144.5137  164.1792 O.3     1  UNL1       -0.4628
     23 H         140.9075  143.6480  161.0624 H       1  UNL1        0.1565
     24 C         138.8643  137.7371  165.2650 C.3     1  UNL1        0.0319
     25 C         138.0859  138.9741  165.6024 C.3     1  UNL1        0.0301
     26 C         140.8334  140.2973  168.9116 C.ar    1  UNL1        0.2250
     27 C         141.4953  141.6416  168.8443 C.ar    1  UNL1        0.0593
     28 C         141.2415  142.5449  167.6740 C.ar    1  UNL1        0.0254
     29 C         140.3257  142.1039  166.5709 C.ar    1  UNL1        0.0988
     30 N         140.0719  143.0071  165.4006 N.ar    1  UNL1       -0.2427
     31 C         139.1561  142.5661  164.2976 C.ar    1  UNL1        0.0943
     32 C         138.4940  141.2217  164.3648 C.ar    1  UNL1       -0.0052
     33 C         137.5782  140.7807  163.2618 C.3     1  UNL1        0.0324
     34 C         138.7479  140.3184  165.5351 C.ar    1  UNL1       -0.0053
     35 C         139.6637  140.7595  166.6382 C.ar    1  UNL1        0.0977
     36 N         139.9176  139.8563  167.8085 N.ar    1  UNL1       -0.2105
     37 C         142.4347  138.7601  170.2616 C.3     1  UNL1        0.2542
     38 O         141.0872  139.3940  170.0819 O.3     1  UNL1       -0.4561
@<TRIPOS>BOND
     1    37    38    1
     2    38    26    1
     3    26    27   ar
     4    27    28   ar
     5    28    29   ar
     6    29    30   ar
     7    30    31   ar
     8    31    32   ar
     9    32    33    1
    10    32    34   ar
    11    34    25    1
    12    25    24    1
    13    24     1    1
    14     1     2    1
    15     2     3    1
    16     3     4    1
    17     4     9    1
    18     9    11    1
    19    11    12    1
    20    12    13   ar
    21    13    14   ar
    22    14    15   ar
    23    15    16   ar
    24    16    17   ar
    25    16    18    1
    26    18    19   am
    27    19    20    2
    28    19    21    1
    29    21    22    1
    30     4     5    1
    31     5     6    1
    32     4     7    1
    33     7     8    1
    34    34    35   ar
    35    35    36   ar
    36    36    26   ar
    37    35    29   ar
    38     6     1    1
    39     8     1    1
    40    17    12   ar
    41    22    15    1
    42     9    10    1
    43    18    23    1
@<TRIPOS>MOLECULE
*****
 38 43 0 0 0
SMALL
GASTEIGER

@<TRIPOS>ATOM
      1 C         144.2708  139.5796  163.7387 C.3     1  UNL1        0.0932
      2 C         143.3582  139.1766  164.8588 C.3     1  UNL1        0.0286
      3 C         142.1421  138.3461  164.5735 C.3     1  UNL1        0.0193
      4 C         141.8387  137.9187  163.1680 C.3     1  UNL1        0.0700
      5 C         142.7513  138.3217  162.0479 C.3     1  UNL1        0.0193
      6 C         143.9673  139.1522  162.3332 C.3     1  UNL1        0.0286
      7 C         142.5167  138.3732  163.2753 C.3     1  UNL1        0.1562
      8 O         143.6163  139.1241  163.5333 O.3     1  UNL1       -0.3572
      9 N         140.6225  137.0882  162.8828 N.3     1  UNL1       -0.2926
     10 H         140.7370  136.2130  163.3940 H       1  UNL1        0.1236
     11 C         139.2592  137.6131  163.2229 C.3     1  UNL1        0.1152
     12 C         138.9013  139.0341  162.9027 C.ar    1  UNL1        0.0765
     13 C         138.5371  139.4178  161.4991 C.ar    1  UNL1        0.0193
     14 C         138.1792  140.8389  161.1790 C.ar    1  UNL1        0.0411
     15 C         138.1856  141.8763  162.2624 C.ar    1  UNL1        0.1708
     16 C         138.5498  141.4926  163.6660 C.ar    1  UNL1        0.1682
     17 N         138.9077  140.0715  163.9862 N.ar    1  UNL1       -0.2304
     18 N         138.5562  142.5300  164.7495 N.am    1  UNL1       -0.2639
     19 C         138.1983  143.9510  164.4293 C.2     1  UNL1        0.2718
     20 O         138.2047  144.9883  165.5127 O.2     1  UNL1       -0.2707
     21 C         137.8341  144.3347  163.0257 C.3     1  UNL1        0.2898
     22 O         137.8277  143.2974  161.9423 O.3     1  UNL1       -0.4628
     23 H         138.7952  142.2782  165.6707 H       1  UNL1        0.1565
     24 C         145.4870  140.4101  164.0239 C.3     1  UNL1        0.0319
     25 C         145.4605  141.8891  163.7748 C.3     1  UNL1        0.0301
     26 C         144.1484  142.7079  159.5490 C.ar    1  UNL1        0.2250
     27 C         142.8439  143.4016  159.2898 C.ar    1  UNL1        0.0593
     28 C         141.9768  143.8223  160.4392 C.ar    1  UNL1        0.0254
     29 C         142.4142  143.5494  161.8478 C.ar    1  UNL1        0.0988
     30 N         141.5471  143.9701  162.9972 N.ar    1  UNL1       -0.2427
     31 C         141.9844  143.6972  164.4058 C.ar    1  UNL1        0.0943
     32 C         143.2889  143.0035  164.6651 C.ar    1  UNL1       -0.0052
     33 C         143.7263  142.7305  166.0737 C.3     1  UNL1        0.0324
     34 C         144.1560  142.5827  163.5157 C.ar    1  UNL1       -0.0053
     35 C         143.7186  142.8557  162.1070 C.ar    1  UNL1        0.0977
     36 N         144.5857  142.4350  160.9576 N.ar    1  UNL1       -0.2105
     37 C         144.3890  141.8199  157.1193 C.3     1  UNL1        0.2542
     38 O         145.0155  142.2872  158.3996 O.3     1  UNL1       -0.4561
@<TRIPOS>BOND
     1    37    38    1
     2    38    26    1
     3    26    27   ar
     4    27    28   ar
     5    28    29   ar
     6    29    30   ar
     7    30    31   ar
     8    31    32   ar
     9    32    33    1
    10    32    34   ar
    11    34    25    1
    12    25    24    1
    13    24     1    1
    14     1     2    1
    15     2     3    1
    16     3     4    1
    17     4     9    1
    18     9    11    1
    19    11    12    1
    20    12    13   ar
    21    13    14   ar
    22    14    15   ar
    23    15    16   ar
    24    16    17   ar
    25    16    18    1
    26    18    19   am
    27    19    20    2
    28    19    21    1
    29    21    22    1
    30     4     5    1
    31     5     6    1
    32     4     7    1
    33     7     8    1
    34    34    35   ar
    35    35    36   ar
    36    36    26   ar
    37    35    29   ar
    38     6     1    1
    39     8     1    1
    40    17    12   ar
    41    22    15    1
    42     9    10    1
    43    18    23    1
@<TRIPOS>MOLECULE
*****
 38 43 0 0 0
SMALL
GASTEIGER

@<TRIPOS>ATOM
      1 C         142.8639  138.4917  162.7764 C.3     1  UNL1        0.0932
      2 C         142.4797  138.7306  161.3463 C.3     1  UNL1        0.0286
      3 C         141.0827  138.4369  160.8859 C.3     1  UNL1        0.0193
      4 C         140.0698  137.9044  161.8557 C.3     1  UNL1        0.0700
      5 C         140.4540  137.6655  163.2858 C.3     1  UNL1        0.0193
      6 C         141.8511  137.9591  163.7462 C.3     1  UNL1        0.0286
      7 C         140.8230  138.0503  162.1545 C.3     1  UNL1        0.1562
      8 O         142.0863  138.3158  162.5708 O.3     1  UNL1       -0.3572
      9 N         138.6727  137.6107  161.3953 N.3     1  UNL1       -0.2926
     10 H         138.4004  136.7271  161.8259 H       1  UNL1        0.1236
     11 C         137.5695  138.5874  161.6764 C.3     1  UNL1        0.1152
     12 C         137.8627  140.0578  161.7195 C.ar    1  UNL1        0.0765
     13 C         138.1628  140.8003  160.4512 C.ar    1  UNL1        0.0193
     14 C         138.4560  142.2708  160.4944 C.ar    1  UNL1        0.0411
     15 C         138.4490  142.9987  161.8059 C.ar    1  UNL1        0.1708
     16 C         138.1489  142.2563  163.0742 C.ar    1  UNL1        0.1682
     17 N         137.8557  140.7859  163.0310 N.ar    1  UNL1       -0.2304
     18 N         138.1419  142.9843  164.3857 N.am    1  UNL1       -0.2639
     19 C         138.4351  144.4547  164.4289 C.2     1  UNL1        0.2718
     20 O         138.4281  145.1826  165.7403 O.2     1  UNL1       -0.2707
     21 C         138.7352  145.1972  163.1605 C.3     1  UNL1        0.2898
     22 O         138.7422  144.4692  161.8491 O.3     1  UNL1       -0.4628
     23 H         137.9449  142.4970  165.2182 H       1  UNL1        0.1565
     24 C         144.2610  138.7853  163.2368 C.3     1  UNL1        0.0319
     25 C         144.6452  140.1829  163.6232 C.3     1  UNL1        0.0301
     26 C         142.5548  140.3302  167.6054 C.ar    1  UNL1        0.2250
     27 C         141.4915  141.3579  167.8567 C.ar    1  UNL1        0.0593
     28 C         141.1251  142.3366  166.7807 C.ar    1  UNL1        0.0254
     29 C         141.8219  142.2875  165.4533 C.ar    1  UNL1        0.0988
     30 N         141.4555  143.2662  164.3772 N.ar    1  UNL1       -0.2427
     31 C         142.1522  143.2171  163.0498 C.ar    1  UNL1        0.0943
     32 C         143.2155  142.1893  162.7984 C.ar    1  UNL1       -0.0052
     33 C         143.9123  142.1402  161.4710 C.3     1  UNL1        0.0324
     34 C         143.5820  141.2106  163.8745 C.ar    1  UNL1       -0.0053
     35 C         142.8851  141.2598  165.2019 C.ar    1  UNL1        0.0977
     36 N         143.2516  140.2811  166.2780 N.ar    1  UNL1       -0.2105
     37 C         142.0859  139.2550  169.9236 C.3     1  UNL1        0.2542
     38 O         142.9212  139.3515  168.6815 O.3     1  UNL1       -0.4561
@<TRIPOS>BOND
     1    37    38    1
     2    38    26    1
     3    26    27   ar
     4    27    28   ar
     5    28    29   ar
     6    29    30   ar
     7    30    31   ar
     8    31    32   ar
     9    32    33    1
    10    32    34   ar
    11    34    25    1
    12    25    24    1
    13    24     1    1
    14     1     2    1
    15     2     3    1
    16     3     4    1
    17     4     9    1
    18     9    11    1
    19    11    12    1
    20    12    13   ar
    21    13    14   ar
    22    14    15   ar
    23    15    16   ar
    24    16    17   ar
    25    16    18    1
    26    18    19   am
    27    19    20    2
    28    19    21    1
    29    21    22    1
    30     4     5    1
    31     5     6    1
    32     4     7    1
    33     7     8    1
    34    34    35   ar
    35    35    36   ar
    36    36    26   ar
    37    35    29   ar
    38     6     1    1
    39     8     1    1
    40    17    12   ar
    41    22    15    1
    42     9    10    1
    43    18    23    1
@<TRIPOS>MOLECULE
*****
 38 43 0 0 0
SMALL
GASTEIGER

@<TRIPOS>ATOM
      1 C         139.0144  143.2075  161.8094 C.3     1  UNL1        0.0932
      2 C         139.7787  142.1552  161.0621 C.3     1  UNL1        0.0286
      3 C         139.3039  140.7324  161.0748 C.3     1  UNL1        0.0193
      4 C         138.0648  140.3620  161.8346 C.3     1  UNL1        0.0700
      5 C         137.3005  141.4143  162.5819 C.3     1  UNL1        0.0193
      6 C         137.7753  142.8371  162.5692 C.3     1  UNL1        0.0286
      7 C         138.2860  141.1547  161.8570 C.3     1  UNL1        0.1562
      8 O         138.7153  142.4412  161.8455 O.3     1  UNL1       -0.3572
      9 N         137.5899  138.9391  161.8473 N.3     1  UNL1       -0.2926
     10 H         137.4831  138.6557  160.8733 H       1  UNL1        0.1236
     11 C         138.4128  137.8798  162.5186 C.3     1  UNL1        0.1152
     12 C         139.2998  138.2389  163.6737 C.ar    1  UNL1        0.0765
     13 C         140.7849  138.0595  163.5629 C.ar    1  UNL1        0.0193
     14 C         141.6720  138.4187  164.7180 C.ar    1  UNL1        0.0411
     15 C         141.0739  138.9573  165.9838 C.ar    1  UNL1        0.1708
     16 C         139.5888  139.1367  166.0945 C.ar    1  UNL1        0.1682
     17 N         138.7018  138.7775  164.9395 N.ar    1  UNL1       -0.2304
     18 N         138.9908  139.6753  167.3604 N.am    1  UNL1       -0.2639
     19 C         139.8779  140.0344  168.5154 C.2     1  UNL1        0.2718
     20 O         139.2798  140.5730  169.7812 O.2     1  UNL1       -0.2707
     21 C         141.3630  139.8550  168.4046 C.3     1  UNL1        0.2898
     22 O         141.9610  139.3165  167.1389 O.3     1  UNL1       -0.4628
     23 H         138.0161  139.7931  167.4331 H       1  UNL1        0.1565
     24 C         139.4892  144.6304  161.7968 C.3     1  UNL1        0.0319
     25 C         140.2044  145.1929  162.9892 C.3     1  UNL1        0.0301
     26 C         144.0338  142.8563  162.6344 C.ar    1  UNL1        0.2250
     27 C         144.4643  141.9483  163.7480 C.ar    1  UNL1        0.0593
     28 C         143.6183  141.8191  164.9799 C.ar    1  UNL1        0.0254
     29 C         142.3418  142.5980  165.0982 C.ar    1  UNL1        0.0988
     30 N         141.4958  142.4688  166.3301 N.ar    1  UNL1       -0.2427
     31 C         140.2194  143.2476  166.4484 C.ar    1  UNL1        0.0943
     32 C         139.7889  144.1557  165.3347 C.ar    1  UNL1       -0.0052
     33 C         138.5124  144.9346  165.4530 C.3     1  UNL1        0.0324
     34 C         140.6349  144.2849  164.1028 C.ar    1  UNL1       -0.0053
     35 C         141.9114  143.5060  163.9846 C.ar    1  UNL1        0.0977
     36 N         142.7574  143.6352  162.7527 N.ar    1  UNL1       -0.2105
     37 C         144.3203  142.6018  160.0647 C.3     1  UNL1        0.2542
     38 O         144.8798  142.9855  161.4025 O.3     1  UNL1       -0.4561
@<TRIPOS>BOND
     1    37    38    1
     2    38    26    1
     3    26    27   ar
     4    27    28   ar
     5    28    29   ar
     6    29    30   ar
     7    30    31   ar
     8    31    32   ar
     9    32    33    1
    10    32    34   ar
    11    34    25    1
    12    25    24    1
    13    24     1    1
    14     1     2    1
    15     2     3    1
    16     3     4    1
    17     4     9    1
    18     9    11    1
    19    11    12    1
    20    12    13   ar
    21    13    14   ar
    22    14    15   ar
    23    15    16   ar
    24    16    17   ar
    25    16    18    1
    26    18    19   am
    27    19    20    2
    28    19    21    1
    29    21    22    1
    30     4     5    1
    31     5     6    1
    32     4     7    1
    33     7     8    1
    34    34    35   ar
    35    35    36   ar
    36    36    26   ar
    37    35    29   ar
    38     6     1    1
    39     8     1    1
    40    17    12   ar
    41    22    15    1
    42     9    10    1
    43    18    23    1
