@<TRIPOS>MOLECULE
*****
 34 38 0 0 0
SMALL
GASTEIGER

@<TRIPOS>ATOM
      1 C         141.8793  142.7137  163.0264 C.ar    1  UNL1        0.1074
      2 C         140.8100  143.7465  163.2260 C.ar    1  UNL1        0.0588
      3 S         140.4643  143.7798  164.6852 S.2     1  UNL1       -0.0508
      4 C         141.3200  142.7676  165.3875 C.ar    1  UNL1        0.1646
      5 N         142.1945  142.1087  164.3623 N.ar    1  UNL1       -0.2224
      6 C         143.6612  140.5896  160.1869 C.ar    1  UNL1        0.2416
      7 N         143.0197  140.9535  161.4930 N.ar    1  UNL1       -0.2089
      8 C         142.5208  142.3497  161.7203 C.ar    1  UNL1        0.1026
      9 C         142.6634  143.3821  160.6413 C.ar    1  UNL1        0.0224
     10 C         143.3049  143.0181  159.3352 C.ar    1  UNL1        0.0239
     11 C         143.8038  141.6219  159.1079 C.ar    1  UNL1        0.1189
     12 N         144.4453  141.2580  157.8018 N.ar    1  UNL1       -0.2826
     13 C         143.9449  140.2311  156.8296 C.ar    1  UNL1        0.1826
     14 N         144.8901  140.1955  155.6655 N.ar    1  UNL1       -0.2280
     15 C         145.9747  141.2004  155.9182 C.ar    1  UNL1        0.0786
     16 C         147.1313  141.4966  155.0100 C.3     1  UNL1        0.0538
     17 C         145.6998  141.8570  157.2385 C.ar    1  UNL1        0.0963
     18 C         144.0146  138.1603  161.0373 C.3     1  UNL1        0.2543
     19 O         144.1601  139.1933  159.9596 O.3     1  UNL1       -0.4551
     20 N         141.3040  142.4670  166.8570 N.pl3   1  UNL1       -0.2786
     21 H         141.8838  142.9747  167.4697 H       1  UNL1        0.1555
     22 C         140.4046  141.3929  167.3931 C.ar    1  UNL1        0.1278
     23 C         139.6038  140.4238  166.5749 C.ar    1  UNL1        0.0244
     24 C         138.8523  139.5313  167.5176 C.ar    1  UNL1        0.0773
     25 N         139.1888  139.9487  168.9185 N.ar    1  UNL1       -0.1726
     26 N         140.1482  141.0993  168.8416 N.ar    1  UNL1       -0.2295
     27 C         138.0515  138.5622  166.6993 C.3     1  UNL1        0.0477
     28 C         138.3080  138.8558  165.2509 C.3     1  UNL1        0.0112
     29 C         139.2673  140.0064  165.1739 C.3     1  UNL1        0.0308
     30 C         140.7460  141.8282  170.0082 C.3     1  UNL1        0.2315
     31 C         140.4635  143.2882  170.2052 C.3     1  UNL1        0.4200
     32 F         140.1809  144.7481  170.4022 F       1  UNL1       -0.1679
     33 F         141.8509  143.6192  169.7413 F       1  UNL1       -0.1679
     34 F         139.0760  142.9570  170.6692 F       1  UNL1       -0.1679
@<TRIPOS>BOND
     1    18    19    1
     2    19     6    1
     3     6     7   ar
     4     7     8   ar
     5     8     1    1
     6     1     2   ar
     7     2     3   ar
     8     3     4   ar
     9     4    20    1
    10    20    22    1
    11    22    23   ar
    12    23    24   ar
    13    24    25   ar
    14    25    26   ar
    15    26    30    1
    16    30    31    1
    17    31    32    1
    18    31    33    1
    19    31    34    1
    20    24    27    1
    21    27    28    1
    22    28    29    1
    23     4     5   ar
    24     8     9   ar
    25     9    10   ar
    26    10    11   ar
    27    11    12    1
    28    12    13   ar
    29    13    14   ar
    30    14    15   ar
    31    15    16    1
    32    15    17   ar
    33    11     6   ar
    34    17    12   ar
    35     5     1   ar
    36    26    22   ar
    37    29    23    1
    38    20    21    1
@<TRIPOS>MOLECULE
*****
 34 38 0 0 0
SMALL
GASTEIGER

@<TRIPOS>ATOM
      1 C         142.3979  142.9853  163.7272 C.ar    1  UNL1        0.1074
      2 C         143.5344  143.6226  164.4702 C.ar    1  UNL1        0.0588
      3 S         143.7194  142.8798  165.7601 S.2     1  UNL1       -0.0508
      4 C         142.6971  141.7835  165.8144 C.ar    1  UNL1        0.1646
      5 N         141.8804  141.8487  164.5580 N.ar    1  UNL1       -0.2224
      6 C         142.1581  143.5932  159.8127 C.ar    1  UNL1        0.2416
      7 N         142.6847  143.1685  161.1515 N.ar    1  UNL1       -0.2089
      8 C         141.8713  143.4101  162.3884 C.ar    1  UNL1        0.1026
      9 C         140.5313  144.0765  162.2866 C.ar    1  UNL1        0.0224
     10 C         140.0047  144.5013  160.9479 C.ar    1  UNL1        0.0239
     11 C         140.8181  144.2597  159.7109 C.ar    1  UNL1        0.1189
     12 N         140.2915  144.6844  158.3722 N.ar    1  UNL1       -0.2826
     13 C         139.6387  143.7925  157.3581 C.ar    1  UNL1        0.1826
     14 N         139.2690  144.6326  156.1717 N.ar    1  UNL1       -0.2280
     15 C         139.6932  146.0436  156.4525 C.ar    1  UNL1        0.0786
     16 C         139.5166  147.2167  155.5345 C.3     1  UNL1        0.0538
     17 C         140.3251  146.0757  157.8124 C.ar    1  UNL1        0.0963
     18 C         144.3314  142.7278  158.6824 C.3     1  UNL1        0.2543
     19 O         142.9715  143.3516  158.5758 O.3     1  UNL1       -0.4551
     20 N         142.5222  140.7954  166.9294 N.pl3   1  UNL1       -0.2786
     21 H         143.3106  140.4362  167.3970 H       1  UNL1        0.1555
     22 C         141.1461  140.3545  167.3318 C.ar    1  UNL1        0.1278
     23 C         140.2110  139.5207  166.5071 C.ar    1  UNL1        0.0244
     24 C         138.9504  139.3209  167.2953 C.ar    1  UNL1        0.0773
     25 N         139.1065  140.0314  168.6071 N.ar    1  UNL1       -0.1726
     26 N         140.4635  140.6702  168.6298 N.ar    1  UNL1       -0.2295
     27 C         138.0153  138.4871  166.4706 C.3     1  UNL1        0.0477
     28 C         138.6979  138.1714  165.1727 C.3     1  UNL1        0.0112
     29 C         140.0549  138.8102  165.1953 C.3     1  UNL1        0.0308
     30 C         141.0372  141.4820  169.7530 C.3     1  UNL1        0.2315
     31 C         140.8084  142.9638  169.8005 C.3     1  UNL1        0.4200
     32 F         140.5798  144.4455  169.8479 F       1  UNL1       -0.1679
     33 F         139.4500  142.7350  170.3937 F       1  UNL1       -0.1679
     34 F         142.1670  143.1925  169.2072 F       1  UNL1       -0.1679
@<TRIPOS>BOND
     1    18    19    1
     2    19     6    1
     3     6     7   ar
     4     7     8   ar
     5     8     1    1
     6     1     2   ar
     7     2     3   ar
     8     3     4   ar
     9     4    20    1
    10    20    22    1
    11    22    23   ar
    12    23    24   ar
    13    24    25   ar
    14    25    26   ar
    15    26    30    1
    16    30    31    1
    17    31    32    1
    18    31    33    1
    19    31    34    1
    20    24    27    1
    21    27    28    1
    22    28    29    1
    23     4     5   ar
    24     8     9   ar
    25     9    10   ar
    26    10    11   ar
    27    11    12    1
    28    12    13   ar
    29    13    14   ar
    30    14    15   ar
    31    15    16    1
    32    15    17   ar
    33    11     6   ar
    34    17    12   ar
    35     5     1   ar
    36    26    22   ar
    37    29    23    1
    38    20    21    1
@<TRIPOS>MOLECULE
*****
 34 38 0 0 0
SMALL
GASTEIGER

@<TRIPOS>ATOM
      1 C         143.8146  140.3802  163.3476 C.ar    1  UNL1        0.1074
      2 C         144.3642  139.1410  163.9897 C.ar    1  UNL1        0.0588
      3 S         143.9509  139.1437  165.4316 S.2     1  UNL1       -0.0508
      4 C         143.1458  140.3845  165.6807 C.ar    1  UNL1        0.1646
      5 N         143.0616  141.1487  164.3928 N.ar    1  UNL1       -0.2224
      6 C         143.8867  140.1908  159.3842 C.ar    1  UNL1        0.2416
      7 N         143.7137  139.7905  160.8194 N.ar    1  UNL1       -0.2089
      8 C         143.9876  140.7805  161.9125 C.ar    1  UNL1        0.1026
      9 C         144.4345  142.1710  161.5703 C.ar    1  UNL1        0.0224
     10 C         144.6075  142.5714  160.1351 C.ar    1  UNL1        0.0239
     11 C         144.3336  141.5813  159.0420 C.ar    1  UNL1        0.1189
     12 N         144.5066  141.9817  157.6069 N.ar    1  UNL1       -0.2826
     13 C         143.4378  142.5327  156.7103 C.ar    1  UNL1        0.1826
     14 N         144.0494  142.7929  155.3656 N.ar    1  UNL1       -0.2280
     15 C         145.4963  142.4026  155.4311 C.ar    1  UNL1        0.0786
     16 C         146.4867  142.4971  154.3085 C.3     1  UNL1        0.0538
     17 C         145.7788  141.9013  156.8163 C.ar    1  UNL1        0.0963
     18 C         142.5609  138.1482  158.4790 C.3     1  UNL1        0.2543
     19 O         143.6128  139.2008  158.2911 O.3     1  UNL1       -0.4551
     20 N         142.5326  140.7900  166.9882 N.pl3   1  UNL1       -0.2786
     21 H         143.0388  141.3559  167.6149 H       1  UNL1        0.1555
     22 C         141.1480  140.3333  167.3409 C.ar    1  UNL1        0.1278
     23 C         140.2445  139.5073  166.4741 C.ar    1  UNL1        0.0244
     24 C         138.9619  139.2859  167.2198 C.ar    1  UNL1        0.0773
     25 N         139.0728  139.9750  168.5475 N.ar    1  UNL1       -0.1726
     26 N         140.4239  140.6224  168.6224 N.ar    1  UNL1       -0.2295
     27 C         138.0584  138.4599  166.3530 C.3     1  UNL1        0.0477
     28 C         138.7825  138.1709  165.0716 C.3     1  UNL1        0.0112
     29 C         140.1336  138.8182  165.1464 C.3     1  UNL1        0.0308
     30 C         140.9572  141.4189  169.7761 C.3     1  UNL1        0.2315
     31 C         140.6792  142.8904  169.8638 C.3     1  UNL1        0.4200
     32 F         140.4014  144.3618  169.9516 F       1  UNL1       -0.1679
     33 F         139.3397  142.6010  170.4736 F       1  UNL1       -0.1679
     34 F         142.0188  143.1797  169.2541 F       1  UNL1       -0.1679
@<TRIPOS>BOND
     1    18    19    1
     2    19     6    1
     3     6     7   ar
     4     7     8   ar
     5     8     1    1
     6     1     2   ar
     7     2     3   ar
     8     3     4   ar
     9     4    20    1
    10    20    22    1
    11    22    23   ar
    12    23    24   ar
    13    24    25   ar
    14    25    26   ar
    15    26    30    1
    16    30    31    1
    17    31    32    1
    18    31    33    1
    19    31    34    1
    20    24    27    1
    21    27    28    1
    22    28    29    1
    23     4     5   ar
    24     8     9   ar
    25     9    10   ar
    26    10    11   ar
    27    11    12    1
    28    12    13   ar
    29    13    14   ar
    30    14    15   ar
    31    15    16    1
    32    15    17   ar
    33    11     6   ar
    34    17    12   ar
    35     5     1   ar
    36    26    22   ar
    37    29    23    1
    38    20    21    1
@<TRIPOS>MOLECULE
*****
 34 38 0 0 0
SMALL
GASTEIGER

@<TRIPOS>ATOM
      1 C         143.0790  141.5976  162.8544 C.ar    1  UNL1        0.1074
      2 C         144.3283  140.7703  162.9232 C.ar    1  UNL1        0.0588
      3 S         144.4124  140.1711  164.2957 S.2     1  UNL1       -0.0508
      4 C         143.2151  140.6281  165.0752 C.ar    1  UNL1        0.1646
      5 N         142.3910  141.5097  164.1845 N.ar    1  UNL1       -0.2224
      6 C         141.4039  144.4560  160.6696 C.ar    1  UNL1        0.2416
      7 N         141.8814  143.6775  161.8595 N.ar    1  UNL1       -0.2089
      8 C         142.6015  142.3761  161.6646 C.ar    1  UNL1        0.1026
      9 C         142.8440  141.8533  160.2796 C.ar    1  UNL1        0.0224
     10 C         142.3664  142.6318  159.0897 C.ar    1  UNL1        0.0239
     11 C         141.6464  143.9332  159.2847 C.ar    1  UNL1        0.1189
     12 N         141.1689  144.7117  158.0948 N.ar    1  UNL1       -0.2826
     13 C         141.9450  145.7647  157.3609 C.ar    1  UNL1        0.1826
     14 N         141.0872  146.2777  156.2424 N.ar    1  UNL1       -0.2280
     15 C         139.7809  145.5416  156.2851 C.ar    1  UNL1        0.0786
     16 C         138.6267  145.7388  155.3475 C.3     1  UNL1        0.0538
     17 C         139.8314  144.5738  157.4299 C.ar    1  UNL1        0.0963
     18 C         139.7151  145.9159  161.9987 C.3     1  UNL1        0.2543
     19 O         140.6838  145.7574  160.8646 O.3     1  UNL1       -0.4551
     20 N         142.8977  140.2669  166.4961 N.pl3   1  UNL1       -0.2786
     21 H         143.6260  140.1388  167.1460 H       1  UNL1        0.1555
     22 C         141.4705  140.1007  166.9267 C.ar    1  UNL1        0.1278
     23 C         140.4355  139.2575  166.2427 C.ar    1  UNL1        0.0244
     24 C         139.1530  139.3843  167.0102 C.ar    1  UNL1        0.0773
     25 N         139.3953  140.3059  168.1686 N.ar    1  UNL1       -0.1726
     26 N         140.8275  140.7487  168.1171 N.ar    1  UNL1       -0.2295
     27 C         138.1181  138.5410  166.3262 C.3     1  UNL1        0.0477
     28 C         138.7610  137.8931  165.1359 C.3     1  UNL1        0.0112
     29 C         140.1933  138.3359  165.0843 C.3     1  UNL1        0.0308
     30 C         141.4989  141.6765  169.0857 C.3     1  UNL1        0.2315
     31 C         140.9087  143.0276  169.3622 C.3     1  UNL1        0.4200
     32 F         140.3186  144.3786  169.6387 F       1  UNL1       -0.1679
     33 F         140.6065  143.1942  167.9025 F       1  UNL1       -0.1679
     34 F         141.2111  142.8609  170.8219 F       1  UNL1       -0.1679
@<TRIPOS>BOND
     1    18    19    1
     2    19     6    1
     3     6     7   ar
     4     7     8   ar
     5     8     1    1
     6     1     2   ar
     7     2     3   ar
     8     3     4   ar
     9     4    20    1
    10    20    22    1
    11    22    23   ar
    12    23    24   ar
    13    24    25   ar
    14    25    26   ar
    15    26    30    1
    16    30    31    1
    17    31    32    1
    18    31    33    1
    19    31    34    1
    20    24    27    1
    21    27    28    1
    22    28    29    1
    23     4     5   ar
    24     8     9   ar
    25     9    10   ar
    26    10    11   ar
    27    11    12    1
    28    12    13   ar
    29    13    14   ar
    30    14    15   ar
    31    15    16    1
    32    15    17   ar
    33    11     6   ar
    34    17    12   ar
    35     5     1   ar
    36    26    22   ar
    37    29    23    1
    38    20    21    1
@<TRIPOS>MOLECULE
*****
 34 38 0 0 0
SMALL
GASTEIGER

@<TRIPOS>ATOM
      1 C         142.6797  138.6920  158.5603 C.ar    1  UNL1        0.1074
      2 C         142.0988  140.0720  158.4706 C.ar    1  UNL1        0.0588
      3 S         142.6650  140.8872  159.5953 S.2     1  UNL1       -0.0508
      4 C         143.5959  140.0110  160.3800 C.ar    1  UNL1        0.1646
      5 N         143.6049  138.6543  159.7403 N.ar    1  UNL1       -0.2224
      6 C         143.0351  135.2427  156.6300 C.ar    1  UNL1        0.2416
      7 N         143.3280  136.3845  157.5575 N.ar    1  UNL1       -0.2089
      8 C         142.3868  137.5501  157.6327 C.ar    1  UNL1        0.1026
      9 C         141.1527  137.5738  156.7803 C.ar    1  UNL1        0.0224
     10 C         140.8598  136.4319  155.8528 C.ar    1  UNL1        0.0239
     11 C         141.8010  135.2664  155.7776 C.ar    1  UNL1        0.1189
     12 N         141.5081  134.1245  154.8500 N.ar    1  UNL1       -0.2826
     13 C         141.5324  134.1776  153.3512 C.ar    1  UNL1        0.1826
     14 N         141.1788  132.8150  152.8333 N.ar    1  UNL1       -0.2280
     15 C         140.9359  131.9198  154.0121 C.ar    1  UNL1        0.0786
     16 C         140.5562  130.4697  153.9546 C.3     1  UNL1        0.0538
     17 C         141.1394  132.7291  155.2585 C.ar    1  UNL1        0.0963
     18 C         144.3476  133.3313  157.8021 C.3     1  UNL1        0.2543
     19 O         143.9763  134.0771  156.5548 O.3     1  UNL1       -0.4551
     20 N         144.3800  140.4197  161.5917 N.pl3   1  UNL1       -0.2786
     21 H         145.2626  140.8433  161.4870 H       1  UNL1        0.1555
     22 C         143.8194  140.1831  162.9627 C.ar    1  UNL1        0.1278
     23 C         142.8647  139.0925  163.3488 C.ar    1  UNL1        0.0244
     24 C         142.5704  139.2309  164.8131 C.ar    1  UNL1        0.0773
     25 N         143.3432  140.4071  165.3320 N.ar    1  UNL1       -0.1726
     26 N         144.1152  140.9957  164.1885 N.ar    1  UNL1       -0.2295
     27 C         141.6156  138.1403  165.1992 C.3     1  UNL1        0.0477
     28 C         141.3199  137.3279  163.9734 C.3     1  UNL1        0.0112
     29 C         142.0919  137.9163  162.8298 C.3     1  UNL1        0.0308
     30 C         145.0233  142.1874  164.2583 C.3     1  UNL1        0.2315
     31 C         144.4441  143.5659  164.3778 C.3     1  UNL1        0.4200
     32 F         143.8649  144.9444  164.4974 F       1  UNL1       -0.1679
     33 F         144.2638  143.6191  162.8897 F       1  UNL1       -0.1679
     34 F         144.6244  143.5126  165.8660 F       1  UNL1       -0.1679
@<TRIPOS>BOND
     1    18    19    1
     2    19     6    1
     3     6     7   ar
     4     7     8   ar
     5     8     1    1
     6     1     2   ar
     7     2     3   ar
     8     3     4   ar
     9     4    20    1
    10    20    22    1
    11    22    23   ar
    12    23    24   ar
    13    24    25   ar
    14    25    26   ar
    15    26    30    1
    16    30    31    1
    17    31    32    1
    18    31    33    1
    19    31    34    1
    20    24    27    1
    21    27    28    1
    22    28    29    1
    23     4     5   ar
    24     8     9   ar
    25     9    10   ar
    26    10    11   ar
    27    11    12    1
    28    12    13   ar
    29    13    14   ar
    30    14    15   ar
    31    15    16    1
    32    15    17   ar
    33    11     6   ar
    34    17    12   ar
    35     5     1   ar
    36    26    22   ar
    37    29    23    1
    38    20    21    1
@<TRIPOS>MOLECULE
*****
 34 38 0 0 0
SMALL
GASTEIGER

@<TRIPOS>ATOM
      1 C         142.8613  138.4234  158.8323 C.ar    1  UNL1        0.1074
      2 C         142.3298  139.8260  158.8478 C.ar    1  UNL1        0.0588
      3 S         142.9227  140.5333  160.0302 S.2     1  UNL1       -0.0508
      4 C         143.8206  139.5678  160.7455 C.ar    1  UNL1        0.1646
      5 N         143.7826  138.2639  160.0052 N.ar    1  UNL1       -0.2224
      6 C         143.1289  135.1508  156.6033 C.ar    1  UNL1        0.2416
      7 N         143.4605  136.2082  157.6142 N.ar    1  UNL1       -0.2089
      8 C         142.5296  137.3660  157.8214 C.ar    1  UNL1        0.1026
      9 C         141.2670  137.4664  157.0177 C.ar    1  UNL1        0.0224
     10 C         140.9353  136.4090  156.0068 C.ar    1  UNL1        0.0239
     11 C         141.8662  135.2512  155.7996 C.ar    1  UNL1        0.1189
     12 N         141.5346  134.1938  154.7887 N.ar    1  UNL1       -0.2826
     13 C         141.5003  134.3768  153.3003 C.ar    1  UNL1        0.1826
     14 N         141.1235  133.0639  152.6805 N.ar    1  UNL1       -0.2280
     15 C         140.9249  132.0695  153.7858 C.ar    1  UNL1        0.0786
     16 C         140.5398  130.6295  153.6176 C.3     1  UNL1        0.0538
     17 C         141.1789  132.7678  155.0887 C.ar    1  UNL1        0.0963
     18 C         144.2302  132.9653  157.4752 C.3     1  UNL1        0.2543
     19 O         144.0598  133.9930  156.3960 O.3     1  UNL1       -0.4551
     20 N         144.6167  139.8558  161.9838 N.pl3   1  UNL1       -0.2786
     21 H         145.5998  139.8866  161.9409 H       1  UNL1        0.1555
     22 C         143.9149  140.0968  163.2874 C.ar    1  UNL1        0.1278
     23 C         144.0862  141.2956  164.1725 C.ar    1  UNL1        0.0244
     24 C         143.1958  141.1210  165.3670 C.ar    1  UNL1        0.0773
     25 N         142.4742  139.8142  165.2201 N.ar    1  UNL1       -0.1726
     26 N         142.9186  139.1811  163.9349 N.ar    1  UNL1       -0.2295
     27 C         143.3671  142.3199  166.2521 C.3     1  UNL1        0.0477
     28 C         144.3634  143.2354  165.6046 C.3     1  UNL1        0.0112
     29 C         144.8078  142.6024  164.3194 C.3     1  UNL1        0.0308
     30 C         142.4492  137.8639  163.3924 C.3     1  UNL1        0.2315
     31 C         140.9809  137.5901  163.2540 C.3     1  UNL1        0.4200
     32 F         139.5126  137.3163  163.1154 F       1  UNL1       -0.1679
     33 F         140.9757  136.9354  164.6035 F       1  UNL1       -0.1679
     34 F         140.9861  138.2448  161.9044 F       1  UNL1       -0.1679
@<TRIPOS>BOND
     1    18    19    1
     2    19     6    1
     3     6     7   ar
     4     7     8   ar
     5     8     1    1
     6     1     2   ar
     7     2     3   ar
     8     3     4   ar
     9     4    20    1
    10    20    22    1
    11    22    23   ar
    12    23    24   ar
    13    24    25   ar
    14    25    26   ar
    15    26    30    1
    16    30    31    1
    17    31    32    1
    18    31    33    1
    19    31    34    1
    20    24    27    1
    21    27    28    1
    22    28    29    1
    23     4     5   ar
    24     8     9   ar
    25     9    10   ar
    26    10    11   ar
    27    11    12    1
    28    12    13   ar
    29    13    14   ar
    30    14    15   ar
    31    15    16    1
    32    15    17   ar
    33    11     6   ar
    34    17    12   ar
    35     5     1   ar
    36    26    22   ar
    37    29    23    1
    38    20    21    1
@<TRIPOS>MOLECULE
*****
 34 38 0 0 0
SMALL
GASTEIGER

@<TRIPOS>ATOM
      1 C         143.0934  140.0419  161.3299 C.ar    1  UNL1        0.1074
      2 C         143.7063  138.9966  162.2141 C.ar    1  UNL1        0.0588
      3 S         142.7764  138.7618  163.3674 S.2     1  UNL1       -0.0508
      4 C         141.5888  139.6620  163.1960 C.ar    1  UNL1        0.1646
      5 N         141.7847  140.4530  161.9368 N.ar    1  UNL1       -0.2224
      6 C         144.4318  140.2269  157.5984 C.ar    1  UNL1        0.2416
      7 N         143.8399  139.6876  158.8668 N.ar    1  UNL1       -0.2089
      8 C         143.6853  140.5812  160.0616 C.ar    1  UNL1        0.1026
      9 C         144.1225  142.0142  159.9879 C.ar    1  UNL1        0.0224
     10 C         144.7144  142.5536  158.7196 C.ar    1  UNL1        0.0239
     11 C         144.8690  141.6600  157.5248 C.ar    1  UNL1        0.1189
     12 N         145.4609  142.1993  156.2564 N.ar    1  UNL1       -0.2826
     13 C         144.6957  142.7697  155.0992 C.ar    1  UNL1        0.1826
     14 N         145.6838  143.1858  154.0502 N.ar    1  UNL1       -0.2280
     15 C         147.0596  142.8727  154.5591 C.ar    1  UNL1        0.0786
     16 C         148.3472  143.1249  153.8320 C.3     1  UNL1        0.0538
     17 C         146.9219  142.2630  155.9225 C.ar    1  UNL1        0.0963
     18 C         143.3718  138.8191  155.6894 C.3     1  UNL1        0.2543
     19 O         144.5864  139.3333  156.4036 O.3     1  UNL1       -0.4551
     20 N         140.4119  139.7548  164.1214 N.pl3   1  UNL1       -0.2786
     21 H         140.3914  139.2188  164.9470 H       1  UNL1        0.1555
     22 C         139.2663  140.6642  163.7889 C.ar    1  UNL1        0.1278
     23 C         139.0890  142.0724  164.2740 C.ar    1  UNL1        0.0244
     24 C         137.8099  142.6036  163.6979 C.ar    1  UNL1        0.0773
     25 N         137.1967  141.5236  162.8567 N.ar    1  UNL1       -0.1726
     26 N         138.0967  140.3249  162.9129 N.ar    1  UNL1       -0.2295
     27 C         137.6326  144.0119  164.1829 C.3     1  UNL1        0.0477
     28 C         138.8021  144.3511  165.0588 C.3     1  UNL1        0.0112
     29 C         139.7022  143.1525  165.1151 C.3     1  UNL1        0.0308
     30 C         137.8676  139.0168  162.2157 C.3     1  UNL1        0.2315
     31 C         138.6809  138.6583  161.0073 C.3     1  UNL1        0.4200
     32 F         139.4941  138.2999  159.7989 F       1  UNL1       -0.1679
     33 F         139.3900  137.5997  161.7986 F       1  UNL1       -0.1679
     34 F         137.9717  139.7171  160.2160 F       1  UNL1       -0.1679
@<TRIPOS>BOND
     1    18    19    1
     2    19     6    1
     3     6     7   ar
     4     7     8   ar
     5     8     1    1
     6     1     2   ar
     7     2     3   ar
     8     3     4   ar
     9     4    20    1
    10    20    22    1
    11    22    23   ar
    12    23    24   ar
    13    24    25   ar
    14    25    26   ar
    15    26    30    1
    16    30    31    1
    17    31    32    1
    18    31    33    1
    19    31    34    1
    20    24    27    1
    21    27    28    1
    22    28    29    1
    23     4     5   ar
    24     8     9   ar
    25     9    10   ar
    26    10    11   ar
    27    11    12    1
    28    12    13   ar
    29    13    14   ar
    30    14    15   ar
    31    15    16    1
    32    15    17   ar
    33    11     6   ar
    34    17    12   ar
    35     5     1   ar
    36    26    22   ar
    37    29    23    1
    38    20    21    1
@<TRIPOS>MOLECULE
*****
 34 38 0 0 0
SMALL
GASTEIGER

@<TRIPOS>ATOM
      1 C         141.6914  142.5742  158.3462 C.ar    1  UNL1        0.1074
      2 C         141.0945  143.7115  157.5716 C.ar    1  UNL1        0.0588
      3 S         141.0261  144.9044  158.4784 S.2     1  UNL1       -0.0508
      4 C         141.5808  144.5043  159.8134 C.ar    1  UNL1        0.1646
      5 N         141.9920  143.0642  159.7317 N.ar    1  UNL1       -0.2224
      6 C         142.6686  138.7292  158.2386 C.ar    1  UNL1        0.2416
      7 N         142.4165  140.1136  158.7582 N.ar    1  UNL1       -0.2089
      8 C         141.9436  141.1898  157.8266 C.ar    1  UNL1        0.1026
      9 C         141.7227  140.8817  156.3752 C.ar    1  UNL1        0.0224
     10 C         141.9748  139.4974  155.8556 C.ar    1  UNL1        0.0239
     11 C         142.4478  138.4211  156.7872 C.ar    1  UNL1        0.1189
     12 N         142.6999  137.0368  156.2676 N.ar    1  UNL1       -0.2826
     13 C         143.9904  136.5321  155.6934 C.ar    1  UNL1        0.1826
     14 N         143.7938  135.0975  155.3018 N.ar    1  UNL1       -0.2280
     15 C         142.3818  134.7156  155.6341 C.ar    1  UNL1        0.0786
     16 C         141.7558  133.3712  155.4089 C.3     1  UNL1        0.0538
     17 C         141.7058  135.9141  156.2309 C.ar    1  UNL1        0.0963
     18 C         143.3155  137.9483  160.6305 C.3     1  UNL1        0.2543
     19 O         143.1416  137.6530  159.1703 O.3     1  UNL1       -0.4551
     20 N         141.7029  145.3891  161.0185 N.pl3   1  UNL1       -0.2786
     21 H         141.9321  146.3404  160.9096 H       1  UNL1        0.1555
     22 C         141.4758  144.8245  162.3895 C.ar    1  UNL1        0.1278
     23 C         140.1437  144.6084  163.0445 C.ar    1  UNL1        0.0244
     24 C         140.3854  144.0273  164.4060 C.ar    1  UNL1        0.0773
     25 N         141.8669  143.8842  164.5926 N.ar    1  UNL1       -0.1726
     26 N         142.5408  144.3769  163.3463 N.ar    1  UNL1       -0.2295
     27 C         139.0534  143.8111  165.0610 C.3     1  UNL1        0.0477
     28 C         137.9884  144.2587  164.1042 C.3     1  UNL1        0.0112
     29 C         138.6623  144.7515  162.8579 C.3     1  UNL1        0.0308
     30 C         144.0199  144.4153  163.1001 C.3     1  UNL1        0.2315
     31 C         144.7634  143.1477  162.7992 C.3     1  UNL1        0.4200
     32 F         145.5068  141.8801  162.4983 F       1  UNL1       -0.1679
     33 F         144.9446  142.9053  164.2683 F       1  UNL1       -0.1679
     34 F         144.5821  143.3902  161.3301 F       1  UNL1       -0.1679
@<TRIPOS>BOND
     1    18    19    1
     2    19     6    1
     3     6     7   ar
     4     7     8   ar
     5     8     1    1
     6     1     2   ar
     7     2     3   ar
     8     3     4   ar
     9     4    20    1
    10    20    22    1
    11    22    23   ar
    12    23    24   ar
    13    24    25   ar
    14    25    26   ar
    15    26    30    1
    16    30    31    1
    17    31    32    1
    18    31    33    1
    19    31    34    1
    20    24    27    1
    21    27    28    1
    22    28    29    1
    23     4     5   ar
    24     8     9   ar
    25     9    10   ar
    26    10    11   ar
    27    11    12    1
    28    12    13   ar
    29    13    14   ar
    30    14    15   ar
    31    15    16    1
    32    15    17   ar
    33    11     6   ar
    34    17    12   ar
    35     5     1   ar
    36    26    22   ar
    37    29    23    1
    38    20    21    1
@<TRIPOS>MOLECULE
*****
 34 38 0 0 0
SMALL
GASTEIGER

@<TRIPOS>ATOM
      1 C         141.9390  142.4625  158.5229 C.ar    1  UNL1        0.1074
      2 C         141.5421  143.6855  157.7504 C.ar    1  UNL1        0.0588
      3 S         141.4780  144.8381  158.7082 S.2     1  UNL1       -0.0508
      4 C         141.8353  144.3275  160.0726 C.ar    1  UNL1        0.1646
      5 N         142.1202  142.8593  159.9581 N.ar    1  UNL1       -0.2224
      6 C         142.5765  138.5511  158.3127 C.ar    1  UNL1        0.2416
      7 N         142.3929  139.9289  158.8764 N.ar    1  UNL1       -0.2089
      8 C         142.1226  141.0847  157.9592 C.ar    1  UNL1        0.1026
      9 C         142.0357  140.8625  156.4782 C.ar    1  UNL1        0.0224
     10 C         142.2193  139.4846  155.9145 C.ar    1  UNL1        0.0239
     11 C         142.4896  138.3289  156.8317 C.ar    1  UNL1        0.1189
     12 N         142.6731  136.9510  156.2680 N.ar    1  UNL1       -0.2826
     13 C         143.9602  136.3692  155.7633 C.ar    1  UNL1        0.1826
     14 N         143.6843  134.9716  155.2934 N.ar    1  UNL1       -0.2280
     15 C         142.2268  134.6898  155.5077 C.ar    1  UNL1        0.0786
     16 C         141.5184  133.4094  155.1776 C.3     1  UNL1        0.0538
     17 C         141.6018  135.9131  156.1100 C.ar    1  UNL1        0.0963
     18 C         143.2059  137.6447  160.6647 C.3     1  UNL1        0.2543
     19 O         142.8468  137.3953  159.2299 O.3     1  UNL1       -0.4551
     20 N         141.8968  145.1421  161.3307 N.pl3   1  UNL1       -0.2786
     21 H         141.8562  146.1246  161.2834 H       1  UNL1        0.1555
     22 C         142.0203  144.4596  162.6607 C.ar    1  UNL1        0.1278
     23 C         143.2072  143.6811  163.1455 C.ar    1  UNL1        0.0244
     24 C         142.8990  143.1762  164.5239 C.ar    1  UNL1        0.0773
     25 N         141.5215  143.6427  164.8911 N.ar    1  UNL1       -0.1726
     26 N         140.9783  144.4359  163.7396 N.ar    1  UNL1       -0.2295
     27 C         144.0859  142.3976  165.0086 C.3     1  UNL1        0.0477
     28 C         145.1278  142.4214  163.9297 C.3     1  UNL1        0.0112
     29 C         144.5847  143.2146  162.7782 C.3     1  UNL1        0.0308
     30 C         139.6302  145.0905  163.6779 C.3     1  UNL1        0.2315
     31 C         138.4515  144.4444  164.3438 C.3     1  UNL1        0.4200
     32 F         137.2729  143.7984  165.0098 F       1  UNL1       -0.1679
     33 F         138.2847  143.5329  163.1644 F       1  UNL1       -0.1679
     34 F         138.6183  145.3560  165.5233 F       1  UNL1       -0.1679
@<TRIPOS>BOND
     1    18    19    1
     2    19     6    1
     3     6     7   ar
     4     7     8   ar
     5     8     1    1
     6     1     2   ar
     7     2     3   ar
     8     3     4   ar
     9     4    20    1
    10    20    22    1
    11    22    23   ar
    12    23    24   ar
    13    24    25   ar
    14    25    26   ar
    15    26    30    1
    16    30    31    1
    17    31    32    1
    18    31    33    1
    19    31    34    1
    20    24    27    1
    21    27    28    1
    22    28    29    1
    23     4     5   ar
    24     8     9   ar
    25     9    10   ar
    26    10    11   ar
    27    11    12    1
    28    12    13   ar
    29    13    14   ar
    30    14    15   ar
    31    15    16    1
    32    15    17   ar
    33    11     6   ar
    34    17    12   ar
    35     5     1   ar
    36    26    22   ar
    37    29    23    1
    38    20    21    1
