@<TRIPOS>MOLECULE
*****
 30 32 0 0 0
SMALL
GASTEIGER

@<TRIPOS>ATOM
      1 C         140.5848  144.3884  164.0230 C.ar    1  UNL1        0.0625
      2 C         139.9788  144.0488  165.3524 C.ar    1  UNL1        0.0218
      3 C         140.5705  142.7498  165.8133 C.ar    1  UNL1        0.0309
      4 S         141.5421  142.2865  164.7687 S.2     1  UNL1       -0.0812
      5 C         141.5510  143.2991  163.6622 C.ar    1  UNL1        0.0963
      6 N         139.1291  146.6951  161.1403 N.am    1  UNL1       -0.3131
      7 C         139.4355  145.4797  161.9644 C.2     1  UNL1        0.3013
      8 O         138.8990  144.1405  161.5538 O.2     1  UNL1       -0.2527
      9 N         140.2784  145.6037  163.1989 N.am    1  UNL1       -0.2679
     10 H         138.5758  146.6137  160.3300 H       1  UNL1        0.1465
     11 H         139.4812  147.5741  161.4098 H       1  UNL1        0.1465
     12 H         140.6305  146.4827  163.4683 H       1  UNL1        0.1564
     13 C         140.2472  142.0389  167.0941 C.ar    1  UNL1        0.0083
     14 C         139.7135  140.6375  167.0599 C.ar    1  UNL1        0.0006
     15 C         139.3903  139.9267  168.3406 C.ar    1  UNL1        0.0023
     16 C         139.6008  140.6172  169.6554 C.ar    1  UNL1        0.0296
     17 C         140.1345  142.0186  169.6896 C.ar    1  UNL1        0.1402
     18 F         140.3450  142.7091  171.0044 F       1  UNL1       -0.2042
     19 C         140.4578  142.7294  168.4089 C.ar    1  UNL1        0.0301
     20 C         142.3804  143.2341  162.4141 C.2     1  UNL1        0.2531
     21 O         143.8260  143.6327  162.4525 O.2     1  UNL1       -0.2695
     22 N         141.7643  142.7703  161.1275 N.am    1  UNL1       -0.3007
     23 H         140.8156  142.5087  161.1022 H       1  UNL1        0.1497
     24 C         142.5937  142.7052  159.8793 C.3     1  UNL1        0.0876
     25 C         143.4709  141.5158  159.6229 C.3     1  UNL1        0.0224
     26 C         144.3002  141.4507  158.3748 C.3     1  UNL1        0.0188
     27 C         144.2525  142.5751  157.3831 C.3     1  UNL1        0.0687
     28 N         143.3754  143.7646  157.6396 N.3     1  UNL1       -0.2961
     29 C         142.5460  143.8296  158.8877 C.3     1  UNL1        0.0884
     30 H         142.7293  143.8290  156.8530 H       1  UNL1        0.1233
@<TRIPOS>BOND
     1     6     7   am
     2     7     8    2
     3     7     9   am
     4     9     1    1
     5     1     2   ar
     6     2     3   ar
     7     3    13    1
     8    13    14   ar
     9    14    15   ar
    10    15    16   ar
    11    16    17   ar
    12    17    18    1
    13    17    19   ar
    14     3     4   ar
    15     4     5   ar
    16     5    20    1
    17    20    21    2
    18    20    22   am
    19    24    22    1
    20    24    25    1
    21    25    26    1
    22    26    27    1
    23    27    28    1
    24    28    29    1
    25     5     1   ar
    26    29    24    1
    27    19    13   ar
    28     6    10    1
    29     6    11    1
    30     9    12    1
    31    22    23    1
    32    28    30    1
@<TRIPOS>MOLECULE
*****
 30 32 0 0 0
SMALL
GASTEIGER

@<TRIPOS>ATOM
      1 C         139.4314  140.5731  164.2474 C.ar    1  UNL1        0.0625
      2 C         139.2823  140.3748  165.7268 C.ar    1  UNL1        0.0218
      3 C         140.0409  141.4676  166.4198 C.ar    1  UNL1        0.0309
      4 S         140.6589  142.3414  165.3688 S.2     1  UNL1       -0.0812
      5 C         140.2822  141.7886  164.0262 C.ar    1  UNL1        0.0963
      6 N         137.1247  139.3698  161.2507 N.am    1  UNL1       -0.3131
      7 C         137.7215  140.2350  162.3208 C.2     1  UNL1        0.3013
      8 O         137.2054  141.6271  162.5345 O.2     1  UNL1       -0.2527
      9 N         138.8345  139.7080  163.1773 N.am    1  UNL1       -0.2679
     10 H         136.3942  139.7157  160.6885 H       1  UNL1        0.1465
     11 H         137.4634  138.4562  161.1104 H       1  UNL1        0.1465
     12 H         139.1732  138.7943  163.0370 H       1  UNL1        0.1564
     13 C         140.1606  141.6539  167.9034 C.ar    1  UNL1        0.0083
     14 C         140.5220  142.9975  168.4638 C.ar    1  UNL1        0.0006
     15 C         140.6416  143.1838  169.9474 C.ar    1  UNL1        0.0023
     16 C         140.3998  142.0265  170.8705 C.ar    1  UNL1        0.0296
     17 C         140.0384  140.6829  170.3101 C.ar    1  UNL1        0.1402
     18 F         139.7965  139.5256  171.2332 F       1  UNL1       -0.2042
     19 C         139.9187  140.4966  168.8265 C.ar    1  UNL1        0.0301
     20 C         140.6855  142.3522  162.6959 C.2     1  UNL1        0.2531
     21 O         141.9342  141.8652  162.0224 O.2     1  UNL1       -0.2695
     22 N         139.8401  143.4029  162.0391 N.am    1  UNL1       -0.3007
     23 H         139.0206  143.7226  162.4811 H       1  UNL1        0.1497
     24 C         140.2434  143.9666  160.7088 C.3     1  UNL1        0.0876
     25 C         139.6080  143.4505  159.4518 C.3     1  UNL1        0.0224
     26 C         140.0113  144.0141  158.1216 C.3     1  UNL1        0.0188
     27 C         141.0500  145.0938  158.0483 C.3     1  UNL1        0.0687
     28 N         141.6854  145.6098  159.3052 N.3     1  UNL1       -0.2961
     29 C         141.2821  145.0462  160.6355 C.3     1  UNL1        0.0884
     30 H         141.4970  146.6116  159.3406 H       1  UNL1        0.1233
@<TRIPOS>BOND
     1     6     7   am
     2     7     8    2
     3     7     9   am
     4     9     1    1
     5     1     2   ar
     6     2     3   ar
     7     3    13    1
     8    13    14   ar
     9    14    15   ar
    10    15    16   ar
    11    16    17   ar
    12    17    18    1
    13    17    19   ar
    14     3     4   ar
    15     4     5   ar
    16     5    20    1
    17    20    21    2
    18    20    22   am
    19    24    22    1
    20    24    25    1
    21    25    26    1
    22    26    27    1
    23    27    28    1
    24    28    29    1
    25     5     1   ar
    26    29    24    1
    27    19    13   ar
    28     6    10    1
    29     6    11    1
    30     9    12    1
    31    22    23    1
    32    28    30    1
@<TRIPOS>MOLECULE
*****
 30 32 0 0 0
SMALL
GASTEIGER

@<TRIPOS>ATOM
      1 C         142.7898  139.4206  163.9843 C.ar    1  UNL1        0.0625
      2 C         142.6539  138.9407  165.3990 C.ar    1  UNL1        0.0218
      3 C         141.8788  139.9711  166.1656 C.ar    1  UNL1        0.0309
      4 S         141.5357  141.0878  165.2247 S.2     1  UNL1       -0.0812
      5 C         142.0987  140.7476  163.8766 C.ar    1  UNL1        0.0963
      6 N         143.4117  137.1443  160.7935 N.am    1  UNL1       -0.3131
      7 C         142.7082  137.8648  161.9053 C.2     1  UNL1        0.3013
      8 O         141.2196  137.7500  162.0496 O.2     1  UNL1       -0.2527
      9 N         143.4933  138.7001  162.8726 N.am    1  UNL1       -0.2679
     10 H         142.8964  136.5961  160.1586 H       1  UNL1        0.1465
     11 H         144.3887  137.2197  160.6988 H       1  UNL1        0.1465
     12 H         144.4704  138.7755  162.7779 H       1  UNL1        0.1564
     13 C         141.5113  139.8976  167.6180 C.ar    1  UNL1        0.0083
     14 C         142.4987  139.3686  168.6156 C.ar    1  UNL1        0.0006
     15 C         142.1312  139.2952  170.0680 C.ar    1  UNL1        0.0023
     16 C         140.7764  139.7506  170.5228 C.ar    1  UNL1        0.0296
     17 C         139.7890  140.2796  169.5253 C.ar    1  UNL1        0.1402
     18 F         138.4341  140.7350  169.9801 F       1  UNL1       -0.2042
     19 C         140.1565  140.3530  168.0729 C.ar    1  UNL1        0.0301
     20 C         141.9897  141.5870  162.6383 C.2     1  UNL1        0.2531
     21 O         142.9876  141.4225  161.5305 O.2     1  UNL1       -0.2695
     22 N         140.8829  142.5909  162.5077 N.am    1  UNL1       -0.3007
     23 H         140.2280  142.6989  163.2347 H       1  UNL1        0.1497
     24 C         140.7740  143.4303  161.2693 C.3     1  UNL1        0.0876
     25 C         139.8254  143.0353  160.1765 C.3     1  UNL1        0.0224
     26 C         139.7165  143.8746  158.9382 C.3     1  UNL1        0.0188
     27 C         140.5561  145.1091  158.7926 C.3     1  UNL1        0.0687
     28 N         141.5046  145.5041  159.8854 N.3     1  UNL1       -0.2961
     29 C         141.6136  144.6647  161.1238 C.3     1  UNL1        0.0884
     30 H         141.2331  146.4399  160.1869 H       1  UNL1        0.1233
@<TRIPOS>BOND
     1     6     7   am
     2     7     8    2
     3     7     9   am
     4     9     1    1
     5     1     2   ar
     6     2     3   ar
     7     3    13    1
     8    13    14   ar
     9    14    15   ar
    10    15    16   ar
    11    16    17   ar
    12    17    18    1
    13    17    19   ar
    14     3     4   ar
    15     4     5   ar
    16     5    20    1
    17    20    21    2
    18    20    22   am
    19    24    22    1
    20    24    25    1
    21    25    26    1
    22    26    27    1
    23    27    28    1
    24    28    29    1
    25     5     1   ar
    26    29    24    1
    27    19    13   ar
    28     6    10    1
    29     6    11    1
    30     9    12    1
    31    22    23    1
    32    28    30    1
@<TRIPOS>MOLECULE
*****
 30 32 0 0 0
SMALL
GASTEIGER

@<TRIPOS>ATOM
      1 C         139.3372  140.5157  164.0757 C.ar    1  UNL1        0.0625
      2 C         139.1852  140.3588  165.5597 C.ar    1  UNL1        0.0218
      3 C         139.9500  141.4654  166.2235 C.ar    1  UNL1        0.0309
      4 S         140.5747  142.3061  165.1497 S.2     1  UNL1       -0.0812
      5 C         140.1959  141.7192  163.8223 C.ar    1  UNL1        0.0963
      6 N         137.0479  139.2556  161.0888 N.am    1  UNL1       -0.3131
      7 C         137.6491  140.1459  162.1356 C.2     1  UNL1        0.3013
      8 O         137.1635  141.5568  162.2893 O.2     1  UNL1       -0.2527
      9 N         138.7360  139.6254  163.0288 N.am    1  UNL1       -0.2679
     10 H         136.3346  139.5973  160.5026 H       1  UNL1        0.1465
     11 H         137.3667  138.3296  160.9880 H       1  UNL1        0.1465
     12 H         139.0547  138.6994  162.9280 H       1  UNL1        0.1564
     13 C         140.0693  141.6915  167.7016 C.ar    1  UNL1        0.0083
     14 C         139.8161  140.5622  168.6559 C.ar    1  UNL1        0.0006
     15 C         139.9354  140.7884  170.1339 C.ar    1  UNL1        0.0023
     16 C         140.3077  142.1437  170.6576 C.ar    1  UNL1        0.0296
     17 C         140.5609  143.2730  169.7034 C.ar    1  UNL1        0.1402
     18 F         140.9333  144.6283  170.2271 F       1  UNL1       -0.2042
     19 C         140.4417  143.0468  168.2254 C.ar    1  UNL1        0.0301
     20 C         140.6042  142.2437  162.4776 C.2     1  UNL1        0.2531
     21 O         141.7829  141.6480  161.7665 O.2     1  UNL1       -0.2695
     22 N         139.8337  143.3639  161.8439 N.am    1  UNL1       -0.3007
     23 H         139.0600  143.7548  162.3106 H       1  UNL1        0.1497
     24 C         140.2419  143.8884  160.4992 C.3     1  UNL1        0.0876
     25 C         139.5860  143.3608  159.2577 C.3     1  UNL1        0.0224
     26 C         139.9942  143.8853  157.9131 C.3     1  UNL1        0.0188
     27 C         141.0584  144.9373  157.8099 C.3     1  UNL1        0.0687
     28 N         141.7144  145.4648  159.0514 N.3     1  UNL1       -0.2961
     29 C         141.3061  144.9403  160.3961 C.3     1  UNL1        0.0884
     30 H         141.5507  146.4715  159.0659 H       1  UNL1        0.1233
@<TRIPOS>BOND
     1     6     7   am
     2     7     8    2
     3     7     9   am
     4     9     1    1
     5     1     2   ar
     6     2     3   ar
     7     3    13    1
     8    13    14   ar
     9    14    15   ar
    10    15    16   ar
    11    16    17   ar
    12    17    18    1
    13    17    19   ar
    14     3     4   ar
    15     4     5   ar
    16     5    20    1
    17    20    21    2
    18    20    22   am
    19    24    22    1
    20    24    25    1
    21    25    26    1
    22    26    27    1
    23    27    28    1
    24    28    29    1
    25     5     1   ar
    26    29    24    1
    27    19    13   ar
    28     6    10    1
    29     6    11    1
    30     9    12    1
    31    22    23    1
    32    28    30    1
@<TRIPOS>MOLECULE
*****
 30 32 0 0 0
SMALL
GASTEIGER

@<TRIPOS>ATOM
      1 C         140.0514  140.5779  164.3314 C.ar    1  UNL1        0.0625
      2 C         139.9943  140.8637  165.8028 C.ar    1  UNL1        0.0218
      3 C         141.2023  141.6761  166.1645 C.ar    1  UNL1        0.0309
      4 S         142.0060  141.8923  164.9166 S.2     1  UNL1       -0.0812
      5 C         141.2947  141.2136  163.7837 C.ar    1  UNL1        0.0963
      6 N         138.3372  137.6015  162.3434 N.am    1  UNL1       -0.3131
      7 C         139.3462  138.3854  163.1291 C.2     1  UNL1        0.3013
      8 O         140.6591  137.7608  163.4982 O.2     1  UNL1       -0.2527
      9 N         139.0424  139.7940  163.5457 N.am    1  UNL1       -0.2679
     10 H         138.5366  136.6771  162.0699 H       1  UNL1        0.1465
     11 H         137.4755  138.0115  162.1011 H       1  UNL1        0.1465
     12 H         138.1807  140.2040  163.3035 H       1  UNL1        0.1564
     13 C         141.5462  142.1832  167.5337 C.ar    1  UNL1        0.0083
     14 C         140.4989  142.8592  168.3680 C.ar    1  UNL1        0.0006
     15 C         140.8428  143.3662  169.7372 C.ar    1  UNL1        0.0023
     16 C         142.2340  143.1973  170.2720 C.ar    1  UNL1        0.0296
     17 C         143.2813  142.5213  169.4377 C.ar    1  UNL1        0.1402
     18 F         144.6725  142.3523  169.9725 F       1  UNL1       -0.2042
     19 C         142.9374  142.0142  168.0685 C.ar    1  UNL1        0.0301
     20 C         141.7474  141.1771  162.3541 C.2     1  UNL1        0.2531
     21 O         140.7353  141.1319  161.2479 O.2     1  UNL1       -0.2695
     22 N         143.2120  141.1857  162.0306 N.am    1  UNL1       -0.3007
     23 H         143.8763  141.2153  162.7567 H       1  UNL1        0.1497
     24 C         143.6646  141.1491  160.6010 C.3     1  UNL1        0.0876
     25 C         144.0586  142.4188  159.9063 C.3     1  UNL1        0.0224
     26 C         144.5112  142.3823  158.4768 C.3     1  UNL1        0.0188
     27 C         144.5698  141.0760  157.7418 C.3     1  UNL1        0.0687
     28 N         144.1758  139.8063  158.4365 N.3     1  UNL1       -0.2961
     29 C         143.7232  139.8429  159.8661 C.3     1  UNL1        0.0884
     30 H         144.9855  139.1870  158.3997 H       1  UNL1        0.1233
@<TRIPOS>BOND
     1     6     7   am
     2     7     8    2
     3     7     9   am
     4     9     1    1
     5     1     2   ar
     6     2     3   ar
     7     3    13    1
     8    13    14   ar
     9    14    15   ar
    10    15    16   ar
    11    16    17   ar
    12    17    18    1
    13    17    19   ar
    14     3     4   ar
    15     4     5   ar
    16     5    20    1
    17    20    21    2
    18    20    22   am
    19    24    22    1
    20    24    25    1
    21    25    26    1
    22    26    27    1
    23    27    28    1
    24    28    29    1
    25     5     1   ar
    26    29    24    1
    27    19    13   ar
    28     6    10    1
    29     6    11    1
    30     9    12    1
    31    22    23    1
    32    28    30    1
@<TRIPOS>MOLECULE
*****
 30 32 0 0 0
SMALL
GASTEIGER

@<TRIPOS>ATOM
      1 C         141.7778  139.8849  163.8932 C.ar    1  UNL1        0.0625
      2 C         141.5089  139.7284  165.3606 C.ar    1  UNL1        0.0218
      3 C         140.9176  141.0121  165.8630 C.ar    1  UNL1        0.0309
      4 S         140.8211  141.9621  164.7062 S.2     1  UNL1       -0.0812
      5 C         141.3527  141.2655  163.4888 C.ar    1  UNL1        0.0963
      6 N         144.3637  137.9552  161.5825 N.am    1  UNL1       -0.3131
      7 C         143.7733  138.9963  162.4867 C.2     1  UNL1        0.3013
      8 O         144.5881  140.1899  162.8885 O.2     1  UNL1       -0.2527
      9 N         142.3682  138.8438  162.9891 N.am    1  UNL1       -0.2679
     10 H         145.2859  138.0553  161.2528 H       1  UNL1        0.1465
     11 H         143.8289  137.1718  161.3188 H       1  UNL1        0.1465
     12 H         141.8334  138.0604  162.7253 H       1  UNL1        0.1564
     13 C         140.4967  141.2961  167.2745 C.ar    1  UNL1        0.0083
     14 C         139.8041  140.2358  168.0783 C.ar    1  UNL1        0.0006
     15 C         139.3833  140.5198  169.4897 C.ar    1  UNL1        0.0023
     16 C         139.6550  141.8640  170.0974 C.ar    1  UNL1        0.0296
     17 C         140.3477  142.9242  169.2936 C.ar    1  UNL1        0.1402
     18 F         140.6194  144.2684  169.9013 F       1  UNL1       -0.2042
     19 C         140.7685  142.6403  167.8822 C.ar    1  UNL1        0.0301
     20 C         141.4433  141.8472  162.1091 C.2     1  UNL1        0.2531
     21 O         141.0205  141.0328  160.9225 O.2     1  UNL1       -0.2695
     22 N         141.9568  143.2433  161.9161 N.am    1  UNL1       -0.3007
     23 H         142.2343  143.7778  162.6949 H       1  UNL1        0.1497
     24 C         142.0474  143.8250  160.5364 C.3     1  UNL1        0.0876
     25 C         141.0572  144.8606  160.0926 C.3     1  UNL1        0.0224
     26 C         141.1478  145.4423  158.7130 C.3     1  UNL1        0.0188
     27 C         142.2286  144.9884  157.7772 C.3     1  UNL1        0.0687
     28 N         143.2189  143.9528  158.2210 N.3     1  UNL1       -0.2961
     29 C         143.1282  143.3711  159.6007 C.3     1  UNL1        0.0884
     30 H         144.1435  144.3757  158.1399 H       1  UNL1        0.1233
@<TRIPOS>BOND
     1     6     7   am
     2     7     8    2
     3     7     9   am
     4     9     1    1
     5     1     2   ar
     6     2     3   ar
     7     3    13    1
     8    13    14   ar
     9    14    15   ar
    10    15    16   ar
    11    16    17   ar
    12    17    18    1
    13    17    19   ar
    14     3     4   ar
    15     4     5   ar
    16     5    20    1
    17    20    21    2
    18    20    22   am
    19    24    22    1
    20    24    25    1
    21    25    26    1
    22    26    27    1
    23    27    28    1
    24    28    29    1
    25     5     1   ar
    26    29    24    1
    27    19    13   ar
    28     6    10    1
    29     6    11    1
    30     9    12    1
    31    22    23    1
    32    28    30    1
@<TRIPOS>MOLECULE
*****
 30 32 0 0 0
SMALL
GASTEIGER

@<TRIPOS>ATOM
      1 C         139.2842  143.6651  164.0863 C.ar    1  UNL1        0.0625
      2 C         139.8838  143.6049  165.4600 C.ar    1  UNL1        0.0218
      3 C         140.1441  142.1649  165.7895 C.ar    1  UNL1        0.0309
      4 S         139.7054  141.3350  164.6195 S.2     1  UNL1       -0.0812
      5 C         139.1740  142.2622  163.5669 C.ar    1  UNL1        0.0963
      6 N         139.2392  146.6295  161.4482 N.am    1  UNL1       -0.3131
      7 C         139.6554  145.3851  162.1749 C.2     1  UNL1        0.3013
      8 O         140.8591  144.6161  161.7166 O.2     1  UNL1       -0.2527
      9 N         138.8680  144.9096  163.3597 N.am    1  UNL1       -0.2679
     10 H         139.7560  146.9416  160.6706 H       1  UNL1        0.1465
     11 H         138.4492  147.1342  161.7490 H       1  UNL1        0.1465
     12 H         138.0780  145.4143  163.6604 H       1  UNL1        0.1564
     13 C         140.7387  141.6459  167.0651 C.ar    1  UNL1        0.0083
     14 C         140.0227  140.5869  167.8499 C.ar    1  UNL1        0.0006
     15 C         140.6174  140.0680  169.1255 C.ar    1  UNL1        0.0023
     16 C         141.9280  140.6079  169.6162 C.ar    1  UNL1        0.0296
     17 C         142.6439  141.6668  168.8313 C.ar    1  UNL1        0.1402
     18 F         143.9545  142.2068  169.3220 F       1  UNL1       -0.2042
     19 C         142.0493  142.1858  167.5558 C.ar    1  UNL1        0.0301
     20 C         138.6281  141.8575  162.2296 C.2     1  UNL1        0.2531
     21 O         137.2160  141.3652  162.1137 O.2     1  UNL1       -0.2695
     22 N         139.4944  141.9451  161.0082 N.am    1  UNL1       -0.3007
     23 H         140.4213  142.2683  161.0843 H       1  UNL1        0.1497
     24 C         138.9486  141.5405  159.6709 C.3     1  UNL1        0.0876
     25 C         138.3664  142.5751  158.7542 C.3     1  UNL1        0.0224
     26 C         137.8206  142.1705  157.4170 C.3     1  UNL1        0.0188
     27 C         137.8569  140.7311  156.9964 C.3     1  UNL1        0.0687
     28 N         138.4391  139.6964  157.9132 N.3     1  UNL1       -0.2961
     29 C         138.9849  140.1011  159.2505 C.3     1  UNL1        0.0884
     30 H         139.2033  139.2502  157.4060 H       1  UNL1        0.1233
@<TRIPOS>BOND
     1     6     7   am
     2     7     8    2
     3     7     9   am
     4     9     1    1
     5     1     2   ar
     6     2     3   ar
     7     3    13    1
     8    13    14   ar
     9    14    15   ar
    10    15    16   ar
    11    16    17   ar
    12    17    18    1
    13    17    19   ar
    14     3     4   ar
    15     4     5   ar
    16     5    20    1
    17    20    21    2
    18    20    22   am
    19    24    22    1
    20    24    25    1
    21    25    26    1
    22    26    27    1
    23    27    28    1
    24    28    29    1
    25     5     1   ar
    26    29    24    1
    27    19    13   ar
    28     6    10    1
    29     6    11    1
    30     9    12    1
    31    22    23    1
    32    28    30    1
@<TRIPOS>MOLECULE
*****
 30 32 0 0 0
SMALL
GASTEIGER

@<TRIPOS>ATOM
      1 C         140.7361  142.7007  164.2940 C.ar    1  UNL1        0.0625
      2 C         140.9282  142.7548  165.7806 C.ar    1  UNL1        0.0218
      3 C         141.8569  141.6426  166.1688 C.ar    1  UNL1        0.0309
      4 S         142.2386  140.9010  164.9221 S.2     1  UNL1       -0.0812
      5 C         141.5459  141.5549  163.7634 C.ar    1  UNL1        0.0963
      6 N         137.5451  144.3613  162.6179 N.am    1  UNL1       -0.3131
      7 C         138.3974  143.4328  163.4311 C.2     1  UNL1        0.3013
      8 O         137.7635  142.3080  164.1947 O.2     1  UNL1       -0.2527
      9 N         139.8837  143.6291  163.4808 N.am    1  UNL1       -0.2679
     10 H         136.5696  144.2325  162.5853 H       1  UNL1        0.1465
     11 H         137.9611  145.0996  162.1167 H       1  UNL1        0.1465
     12 H         140.2997  144.3674  162.9796 H       1  UNL1        0.1564
     13 C         142.3221  141.3273  167.5596 C.ar    1  UNL1        0.0083
     14 C         143.0422  142.3688  168.3638 C.ar    1  UNL1        0.0006
     15 C         143.5073  142.0535  169.7545 C.ar    1  UNL1        0.0023
     16 C         143.2524  140.6967  170.3411 C.ar    1  UNL1        0.0296
     17 C         142.5322  139.6552  169.5369 C.ar    1  UNL1        0.1402
     18 F         142.2773  138.2984  170.1235 F       1  UNL1       -0.2042
     19 C         142.0671  139.9705  168.1462 C.ar    1  UNL1        0.0301
     20 C         141.6456  141.1366  162.3263 C.2     1  UNL1        0.2531
     21 O         141.0316  141.9863  161.2535 O.2     1  UNL1       -0.2695
     22 N         142.3593  139.8686  161.9621 N.am    1  UNL1       -0.3007
     23 H         142.7624  139.3109  162.6662 H       1  UNL1        0.1497
     24 C         142.4590  139.4502  160.5251 C.3     1  UNL1        0.0876
     25 C         141.3215  138.7189  159.8762 C.3     1  UNL1        0.0224
     26 C         141.4211  138.3006  158.4393 C.3     1  UNL1        0.0188
     27 C         142.6583  138.6136  157.6511 C.3     1  UNL1        0.0687
     28 N         143.7959  139.3450  158.2999 N.3     1  UNL1       -0.2961
     29 C         143.6962  139.7633  159.7370 C.3     1  UNL1        0.0884
     30 H         143.9484  140.1942  157.7559 H       1  UNL1        0.1233
@<TRIPOS>BOND
     1     6     7   am
     2     7     8    2
     3     7     9   am
     4     9     1    1
     5     1     2   ar
     6     2     3   ar
     7     3    13    1
     8    13    14   ar
     9    14    15   ar
    10    15    16   ar
    11    16    17   ar
    12    17    18    1
    13    17    19   ar
    14     3     4   ar
    15     4     5   ar
    16     5    20    1
    17    20    21    2
    18    20    22   am
    19    24    22    1
    20    24    25    1
    21    25    26    1
    22    26    27    1
    23    27    28    1
    24    28    29    1
    25     5     1   ar
    26    29    24    1
    27    19    13   ar
    28     6    10    1
    29     6    11    1
    30     9    12    1
    31    22    23    1
    32    28    30    1
@<TRIPOS>MOLECULE
*****
 30 32 0 0 0
SMALL
GASTEIGER

@<TRIPOS>ATOM
      1 C         139.9790  140.9381  163.1338 C.ar    1  UNL1        0.0625
      2 C         140.1268  140.8228  164.6220 C.ar    1  UNL1        0.0218
      3 C         141.0133  141.9397  165.0877 C.ar    1  UNL1        0.0309
      4 S         141.4133  142.7453  163.8873 S.2     1  UNL1       -0.0812
      5 C         140.7741  142.1263  162.6797 C.ar    1  UNL1        0.0963
      6 N         136.9378  139.4269  161.0803 N.am    1  UNL1       -0.3131
      7 C         137.7399  140.3394  161.9600 C.2     1  UNL1        0.3013
      8 O         137.1050  141.5658  162.5456 O.2     1  UNL1       -0.2527
      9 N         139.1769  140.0256  162.2541 N.am    1  UNL1       -0.2679
     10 H         135.9947  139.6328  160.8873 H       1  UNL1        0.1465
     11 H         137.3546  138.6219  160.6960 H       1  UNL1        0.1465
     12 H         139.5936  139.2207  161.8698 H       1  UNL1        0.1564
     13 C         141.4271  142.2044  166.5051 C.ar    1  UNL1        0.0083
     14 C         142.8558  142.0096  166.9181 C.ar    1  UNL1        0.0006
     15 C         143.2695  142.2744  168.3354 C.ar    1  UNL1        0.0023
     16 C         142.2545  142.7339  169.3396 C.ar    1  UNL1        0.0296
     17 C         140.8257  142.9288  168.9266 C.ar    1  UNL1        0.1402
     18 F         139.8107  143.3883  169.9308 F       1  UNL1       -0.2042
     19 C         140.4120  142.6640  167.5093 C.ar    1  UNL1        0.0301
     20 C         140.9067  142.6105  161.2662 C.2     1  UNL1        0.2531
     21 O         140.2337  141.8653  160.1519 O.2     1  UNL1       -0.2695
     22 N         141.7122  143.8399  160.9670 N.am    1  UNL1       -0.3007
     23 H         142.1539  144.3291  161.6983 H       1  UNL1        0.1497
     24 C         141.8448  144.3241  159.5535 C.3     1  UNL1        0.0876
     25 C         140.9441  145.4106  159.0453 C.3     1  UNL1        0.0224
     26 C         141.0767  145.8948  157.6318 C.3     1  UNL1        0.0188
     27 C         142.1099  145.2925  156.7265 C.3     1  UNL1        0.0687
     28 N         143.0106  144.2060  157.2347 N.3     1  UNL1       -0.2961
     29 C         142.8780  143.7218  158.6483 C.3     1  UNL1        0.0884
     30 H         143.9675  144.5424  157.1273 H       1  UNL1        0.1233
@<TRIPOS>BOND
     1     6     7   am
     2     7     8    2
     3     7     9   am
     4     9     1    1
     5     1     2   ar
     6     2     3   ar
     7     3    13    1
     8    13    14   ar
     9    14    15   ar
    10    15    16   ar
    11    16    17   ar
    12    17    18    1
    13    17    19   ar
    14     3     4   ar
    15     4     5   ar
    16     5    20    1
    17    20    21    2
    18    20    22   am
    19    24    22    1
    20    24    25    1
    21    25    26    1
    22    26    27    1
    23    27    28    1
    24    28    29    1
    25     5     1   ar
    26    29    24    1
    27    19    13   ar
    28     6    10    1
    29     6    11    1
    30     9    12    1
    31    22    23    1
    32    28    30    1
