@<TRIPOS>MOLECULE
*****
 33 36 0 0 0
SMALL
GASTEIGER

@<TRIPOS>ATOM
      1 C         143.1156  140.9717  161.6675 C.3     1  UNL1        0.0782
      2 C         141.8227  141.3935  162.3003 C.3     1  UNL1        0.0372
      3 C         141.8221  142.0016  163.6715 C.3     1  UNL1        0.0741
      4 N         143.1144  142.1879  164.4099 N.3     1  UNL1       -0.2689
      5 C         144.4074  141.7661  163.7771 C.3     1  UNL1        0.0741
      6 C         144.4080  141.1580  162.4059 C.3     1  UNL1        0.0372
      7 C         142.9882  141.2411  159.0866 C.3     1  UNL1        0.1148
      8 N         143.1162  140.3635  160.2963 N.am    1  UNL1       -0.2790
      9 C         143.2448  138.8777  160.1349 C.2     1  UNL1        0.2301
     10 O         143.2454  138.2696  158.7637 O.2     1  UNL1       -0.2745
     11 C         143.3728  138.0002  161.3446 C.3     1  UNL1        0.1116
     12 C         142.3161  138.0312  162.4089 C.ar    1  UNL1       -0.0130
     13 C         142.7025  138.2374  163.8435 C.ar    1  UNL1       -0.0022
     14 C         141.6459  138.2684  164.9077 C.ar    1  UNL1        0.0190
     15 C         140.2030  138.0934  164.5373 C.ar    1  UNL1        0.0862
     16 C         139.8166  137.8872  163.1027 C.ar    1  UNL1        0.0190
     17 C         140.8732  137.8562  162.0385 C.ar    1  UNL1       -0.0022
     18 N         139.1463  138.1244  165.6017 N.ar    1  UNL1       -0.1886
     19 C         138.9058  139.2420  166.5729 C.ar    1  UNL1        0.2258
     20 N         137.7556  138.8517  167.4531 N.ar    1  UNL1       -0.1045
     21 N         137.2853  137.4929  167.0258 N.ar    1  UNL1       -0.0222
     22 N         138.1448  137.0435  165.8816 N.ar    1  UNL1       -0.0385
     23 C         143.1138  142.7961  165.7811 C.3     1  UNL1        0.0991
     24 C         142.3857  142.1165  166.9026 C.ar    1  UNL1       -0.0062
     25 C         142.9335  140.8520  167.4950 C.ar    1  UNL1       -0.0030
     26 C         142.2054  140.1723  168.6166 C.ar    1  UNL1        0.0036
     27 C         140.9295  140.7572  169.1458 C.ar    1  UNL1        0.0714
     28 C         140.3818  142.0217  168.5534 C.ar    1  UNL1        0.0036
     29 C         141.1099  142.7014  167.4318 C.ar    1  UNL1       -0.0030
     30 C         140.2014  140.0775  170.2674 C.3     1  UNL1        0.4186
     31 F         139.4733  139.3979  171.3889 F       1  UNL1       -0.1659
     32 F         139.1439  141.1404  170.2249 F       1  UNL1       -0.1659
     33 F         141.2590  139.0147  170.3098 F       1  UNL1       -0.1659
@<TRIPOS>BOND
     1     7     8    1
     2     8     9   am
     3     9    10    2
     4     9    11    1
     5    11    12    1
     6    12    13   ar
     7    13    14   ar
     8    14    15   ar
     9    15    18    1
    10    18    19   ar
    11    19    20   ar
    12    20    21   ar
    13    21    22   ar
    14    15    16   ar
    15    16    17   ar
    16     8     1    1
    17     1     2    1
    18     2     3    1
    19     3     4    1
    20     4    23    1
    21    23    24    1
    22    24    25   ar
    23    25    26   ar
    24    26    27   ar
    25    27    30    1
    26    30    31    1
    27    30    32    1
    28    30    33    1
    29    27    28   ar
    30    28    29   ar
    31     4     5    1
    32     5     6    1
    33    17    12   ar
    34     6     1    1
    35    22    18   ar
    36    29    24   ar
@<TRIPOS>MOLECULE
*****
 33 36 0 0 0
SMALL
GASTEIGER

@<TRIPOS>ATOM
      1 C         142.4857  140.3528  168.2010 C.3     1  UNL1        0.0782
      2 C         142.6760  139.5975  166.9192 C.3     1  UNL1        0.0372
      3 C         143.2515  140.2895  165.7192 C.3     1  UNL1        0.0741
      4 N         143.6366  141.7369  165.8011 N.3     1  UNL1       -0.2689
      5 C         143.4463  142.4923  167.0830 C.3     1  UNL1        0.0741
      6 C         142.8708  141.8003  168.2830 C.3     1  UNL1        0.0372
      7 C         142.7590  138.7188  170.2023 C.3     1  UNL1        0.1148
      8 N         141.9102  139.6608  169.4010 N.am    1  UNL1       -0.2790
      9 C         140.4859  139.9108  169.7996 C.2     1  UNL1        0.2301
     10 O         139.9104  139.2187  170.9996 O.2     1  UNL1       -0.2745
     11 C         139.6371  140.8528  168.9983 C.3     1  UNL1        0.1116
     12 C         139.2972  140.5289  167.5736 C.ar    1  UNL1       -0.0130
     13 C         139.6350  141.5011  166.4824 C.ar    1  UNL1       -0.0022
     14 C         139.2951  141.1773  165.0578 C.ar    1  UNL1        0.0190
     15 C         138.6176  139.8812  164.7244 C.ar    1  UNL1        0.0862
     16 C         138.2799  138.9090  165.8156 C.ar    1  UNL1        0.0190
     17 C         138.6197  139.2329  167.2402 C.ar    1  UNL1       -0.0022
     18 N         138.2777  139.5574  163.2997 N.ar    1  UNL1       -0.1886
     19 C         138.5205  138.2469  162.6113 C.ar    1  UNL1        0.2258
     20 N         138.0283  138.3667  161.1995 N.ar    1  UNL1       -0.1045
     21 N         137.4814  139.7513  161.0152 N.ar    1  UNL1       -0.0222
     22 N         137.6355  140.4871  162.3132 N.ar    1  UNL1       -0.0385
     23 C         144.2121  142.4289  164.6011 C.3     1  UNL1        0.0991
     24 C         143.3099  143.1646  163.6552 C.ar    1  UNL1       -0.0062
     25 C         142.1538  143.9590  164.1865 C.ar    1  UNL1       -0.0030
     26 C         141.2515  144.6947  163.2406 C.ar    1  UNL1        0.0036
     27 C         141.5055  144.6361  161.7634 C.ar    1  UNL1        0.0714
     28 C         142.6617  143.8416  161.2321 C.ar    1  UNL1        0.0036
     29 C         143.5638  143.1059  162.1780 C.ar    1  UNL1       -0.0030
     30 C         140.6033  145.3718  160.8175 C.3     1  UNL1        0.4186
     31 F         139.7011  146.1075  159.8716 F       1  UNL1       -0.1659
     32 F         139.5750  145.5044  161.9015 F       1  UNL1       -0.1659
     33 F         141.6316  145.2391  159.7336 F       1  UNL1       -0.1659
@<TRIPOS>BOND
     1     7     8    1
     2     8     9   am
     3     9    10    2
     4     9    11    1
     5    11    12    1
     6    12    13   ar
     7    13    14   ar
     8    14    15   ar
     9    15    18    1
    10    18    19   ar
    11    19    20   ar
    12    20    21   ar
    13    21    22   ar
    14    15    16   ar
    15    16    17   ar
    16     8     1    1
    17     1     2    1
    18     2     3    1
    19     3     4    1
    20     4    23    1
    21    23    24    1
    22    24    25   ar
    23    25    26   ar
    24    26    27   ar
    25    27    30    1
    26    30    31    1
    27    30    32    1
    28    30    33    1
    29    27    28   ar
    30    28    29   ar
    31     4     5    1
    32     5     6    1
    33    17    12   ar
    34     6     1    1
    35    22    18   ar
    36    29    24   ar
@<TRIPOS>MOLECULE
*****
 33 36 0 0 0
SMALL
GASTEIGER

@<TRIPOS>ATOM
      1 C         142.4840  140.2812  159.2529 C.3     1  UNL1        0.0782
      2 C         142.6743  139.0908  160.1454 C.3     1  UNL1        0.0372
      3 C         141.4937  138.4745  160.8356 C.3     1  UNL1        0.0741
      4 N         140.1228  139.0486  160.6332 N.3     1  UNL1       -0.2689
      5 C         139.9325  140.2391  159.7407 C.3     1  UNL1        0.0741
      6 C         141.1131  140.8554  159.0505 C.3     1  UNL1        0.0372
      7 C         144.2427  140.2472  157.3409 C.3     1  UNL1        0.1148
      8 N         143.6646  140.8975  158.5627 N.am    1  UNL1       -0.2790
      9 C         144.2671  142.1642  159.0944 C.2     1  UNL1        0.2301
     10 O         145.4477  142.7805  158.4042 O.2     1  UNL1       -0.2745
     11 C         143.6890  142.8145  160.3162 C.3     1  UNL1        0.1116
     12 C         143.6315  142.0600  161.6114 C.ar    1  UNL1       -0.0130
     13 C         142.3490  141.9976  162.3867 C.ar    1  UNL1       -0.0022
     14 C         142.2916  141.2431  163.6818 C.ar    1  UNL1        0.0190
     15 C         143.5166  140.5509  164.2016 C.ar    1  UNL1        0.0862
     16 C         144.7992  140.6133  163.4262 C.ar    1  UNL1        0.0190
     17 C         144.8566  141.3678  162.1311 C.ar    1  UNL1       -0.0022
     18 N         143.4592  139.7964  165.4968 N.ar    1  UNL1       -0.1886
     19 C         142.7651  140.2452  166.7486 C.ar    1  UNL1        0.2258
     20 N         142.9626  139.1869  167.7930 N.ar    1  UNL1       -0.1045
     21 N         143.7787  138.0839  167.1867 N.ar    1  UNL1       -0.0222
     22 N         144.0856  138.4607  165.7676 N.ar    1  UNL1       -0.0385
     23 C         138.9423  138.4323  161.3234 C.3     1  UNL1        0.0991
     24 C         138.7592  138.6125  162.8012 C.ar    1  UNL1       -0.0062
     25 C         139.0241  137.4688  163.7348 C.ar    1  UNL1       -0.0030
     26 C         138.8410  137.6490  165.2127 C.ar    1  UNL1        0.0036
     27 C         138.3930  138.9730  165.7569 C.ar    1  UNL1        0.0714
     28 C         138.1281  140.1169  164.8233 C.ar    1  UNL1        0.0036
     29 C         138.3112  139.9366  163.3455 C.ar    1  UNL1       -0.0030
     30 C         138.2099  139.1533  167.2347 C.3     1  UNL1        0.4186
     31 F         138.0269  139.3336  168.7125 F       1  UNL1       -0.1659
     32 F         139.3439  140.1350  167.2554 F       1  UNL1       -0.1659
     33 F         137.0760  138.1716  167.2140 F       1  UNL1       -0.1659
@<TRIPOS>BOND
     1     7     8    1
     2     8     9   am
     3     9    10    2
     4     9    11    1
     5    11    12    1
     6    12    13   ar
     7    13    14   ar
     8    14    15   ar
     9    15    18    1
    10    18    19   ar
    11    19    20   ar
    12    20    21   ar
    13    21    22   ar
    14    15    16   ar
    15    16    17   ar
    16     8     1    1
    17     1     2    1
    18     2     3    1
    19     3     4    1
    20     4    23    1
    21    23    24    1
    22    24    25   ar
    23    25    26   ar
    24    26    27   ar
    25    27    30    1
    26    30    31    1
    27    30    32    1
    28    30    33    1
    29    27    28   ar
    30    28    29   ar
    31     4     5    1
    32     5     6    1
    33    17    12   ar
    34     6     1    1
    35    22    18   ar
    36    29    24   ar
@<TRIPOS>MOLECULE
*****
 33 36 0 0 0
SMALL
GASTEIGER

@<TRIPOS>ATOM
      1 C         141.3933  142.5892  167.8832 C.3     1  UNL1        0.0782
      2 C         142.8593  142.3836  167.6414 C.3     1  UNL1        0.0372
      3 C         143.4136  142.4981  166.2523 C.3     1  UNL1        0.0741
      4 N         142.5019  142.8182  165.1050 N.3     1  UNL1       -0.2689
      5 C         141.0358  143.0237  165.3468 C.3     1  UNL1        0.0741
      6 C         140.4815  142.9093  166.7359 C.3     1  UNL1        0.0372
      7 C         140.4513  143.7103  170.0293 C.3     1  UNL1        0.1148
      8 N         140.8390  142.4747  169.2723 N.am    1  UNL1       -0.2790
      9 C         140.6723  141.1246  169.9044 C.2     1  UNL1        0.2301
     10 O         140.1180  141.0101  171.2935 O.2     1  UNL1       -0.2745
     11 C         141.0600  139.8890  169.1474 C.3     1  UNL1        0.1116
     12 C         140.5137  139.6505  167.7709 C.ar    1  UNL1       -0.0130
     13 C         141.4472  139.3571  166.6340 C.ar    1  UNL1       -0.0022
     14 C         140.9009  139.1186  165.2576 C.ar    1  UNL1        0.0190
     15 C         139.4212  139.1735  165.0180 C.ar    1  UNL1        0.0862
     16 C         138.4878  139.4669  166.1548 C.ar    1  UNL1        0.0190
     17 C         139.0340  139.7054  167.5313 C.ar    1  UNL1       -0.0022
     18 N         138.8750  138.9349  163.6414 N.ar    1  UNL1       -0.1886
     19 C         138.0110  139.8797  162.8598 C.ar    1  UNL1        0.2258
     20 N         137.6989  139.2385  161.5401 N.ar    1  UNL1       -0.1045
     21 N         138.3700  137.8974  161.5062 N.ar    1  UNL1       -0.0222
     22 N         139.0968  137.7098  162.8049 N.ar    1  UNL1       -0.0385
     23 C         143.0562  142.9326  163.7159 C.3     1  UNL1        0.0991
     24 C         143.0141  141.7518  162.7919 C.ar    1  UNL1       -0.0062
     25 C         144.2913  141.1177  162.3265 C.ar    1  UNL1       -0.0030
     26 C         144.2492  139.9368  161.4025 C.ar    1  UNL1        0.0036
     27 C         142.9298  139.3901  160.9438 C.ar    1  UNL1        0.0714
     28 C         141.6526  140.0242  161.4092 C.ar    1  UNL1        0.0036
     29 C         141.6947  141.2051  162.3332 C.ar    1  UNL1       -0.0030
     30 C         142.8877  138.2093  160.0198 C.3     1  UNL1        0.4186
     31 F         142.8456  137.0284  159.0958 F       1  UNL1       -0.1659
     32 F         143.5964  139.0082  158.9665 F       1  UNL1       -0.1659
     33 F         142.1791  137.4103  161.0731 F       1  UNL1       -0.1659
@<TRIPOS>BOND
     1     7     8    1
     2     8     9   am
     3     9    10    2
     4     9    11    1
     5    11    12    1
     6    12    13   ar
     7    13    14   ar
     8    14    15   ar
     9    15    18    1
    10    18    19   ar
    11    19    20   ar
    12    20    21   ar
    13    21    22   ar
    14    15    16   ar
    15    16    17   ar
    16     8     1    1
    17     1     2    1
    18     2     3    1
    19     3     4    1
    20     4    23    1
    21    23    24    1
    22    24    25   ar
    23    25    26   ar
    24    26    27   ar
    25    27    30    1
    26    30    31    1
    27    30    32    1
    28    30    33    1
    29    27    28   ar
    30    28    29   ar
    31     4     5    1
    32     5     6    1
    33    17    12   ar
    34     6     1    1
    35    22    18   ar
    36    29    24   ar
@<TRIPOS>MOLECULE
*****
 33 36 0 0 0
SMALL
GASTEIGER

@<TRIPOS>ATOM
      1 C         140.3273  139.1548  160.1999 C.3     1  UNL1        0.0782
      2 C         139.4192  138.1419  160.8319 C.3     1  UNL1        0.0372
      3 C         138.5811  138.5217  162.0165 C.3     1  UNL1        0.0741
      4 N         138.6512  139.9144  162.5692 N.3     1  UNL1       -0.2689
      5 C         139.5593  140.9274  161.9373 C.3     1  UNL1        0.0741
      6 C         140.3974  140.5475  160.7526 C.3     1  UNL1        0.0372
      7 C         140.7422  139.1834  157.6354 C.3     1  UNL1        0.1148
      8 N         141.1653  138.7750  159.0152 N.am    1  UNL1       -0.2790
      9 C         142.4266  137.9868  159.2105 C.2     1  UNL1        0.2301
     10 O         143.2646  137.6070  158.0259 O.2     1  UNL1       -0.2745
     11 C         142.8497  137.5784  160.5904 C.3     1  UNL1        0.1116
     12 C         143.1149  138.6232  161.6336 C.ar    1  UNL1       -0.0130
     13 C         143.9774  139.8063  161.3079 C.ar    1  UNL1       -0.0022
     14 C         144.2426  140.8510  162.3510 C.ar    1  UNL1        0.0190
     15 C         143.6452  140.7126  163.7199 C.ar    1  UNL1        0.0862
     16 C         142.7826  139.5295  164.0457 C.ar    1  UNL1        0.0190
     17 C         142.5175  138.4848  163.0025 C.ar    1  UNL1       -0.0022
     18 N         143.9104  141.7574  164.7631 N.ar    1  UNL1       -0.1886
     19 C         144.7981  142.9561  164.6047 C.ar    1  UNL1        0.2258
     20 N         144.7708  143.7265  165.8915 N.ar    1  UNL1       -0.1045
     21 N         143.8662  143.0038  166.8452 N.ar    1  UNL1       -0.0222
     22 N         143.3344  141.7869  166.1478 N.ar    1  UNL1       -0.0385
     23 C         137.8131  140.2942  163.7539 C.3     1  UNL1        0.0991
     24 C         138.4053  140.2652  165.1317 C.ar    1  UNL1       -0.0062
     25 C         139.4434  141.2746  165.5232 C.ar    1  UNL1       -0.0030
     26 C         140.0357  141.2457  166.9011 C.ar    1  UNL1        0.0036
     27 C         139.5897  140.2073  167.8875 C.ar    1  UNL1        0.0714
     28 C         138.5515  139.1979  167.4959 C.ar    1  UNL1        0.0036
     29 C         137.9593  139.2268  166.1181 C.ar    1  UNL1       -0.0030
     30 C         140.1819  140.1784  169.2653 C.3     1  UNL1        0.4186
     31 F         140.7740  140.1494  170.6431 F       1  UNL1       -0.1659
     32 F         138.9821  140.9054  169.7962 F       1  UNL1       -0.1659
     33 F         141.3816  139.4513  168.7344 F       1  UNL1       -0.1659
@<TRIPOS>BOND
     1     7     8    1
     2     8     9   am
     3     9    10    2
     4     9    11    1
     5    11    12    1
     6    12    13   ar
     7    13    14   ar
     8    14    15   ar
     9    15    18    1
    10    18    19   ar
    11    19    20   ar
    12    20    21   ar
    13    21    22   ar
    14    15    16   ar
    15    16    17   ar
    16     8     1    1
    17     1     2    1
    18     2     3    1
    19     3     4    1
    20     4    23    1
    21    23    24    1
    22    24    25   ar
    23    25    26   ar
    24    26    27   ar
    25    27    30    1
    26    30    31    1
    27    30    32    1
    28    30    33    1
    29    27    28   ar
    30    28    29   ar
    31     4     5    1
    32     5     6    1
    33    17    12   ar
    34     6     1    1
    35    22    18   ar
    36    29    24   ar
@<TRIPOS>MOLECULE
*****
 33 36 0 0 0
SMALL
GASTEIGER

@<TRIPOS>ATOM
      1 C         141.1669  142.2380  159.1607 C.3     1  UNL1        0.0782
      2 C         139.7127  141.9762  158.9028 C.3     1  UNL1        0.0372
      3 C         139.0249  140.8298  159.5829 C.3     1  UNL1        0.0741
      4 N         139.7912  139.9452  160.5210 N.3     1  UNL1       -0.2689
      5 C         141.2456  140.2069  160.7790 C.3     1  UNL1        0.0741
      6 C         141.9334  141.3534  160.0988 C.3     1  UNL1        0.0372
      7 C         142.8097  143.1242  157.3536 C.3     1  UNL1        0.1148
      8 N         141.8548  143.3845  158.4806 N.am    1  UNL1       -0.2790
      9 C         141.5877  144.7912  158.9276 C.2     1  UNL1        0.2301
     10 O         142.2755  145.9377  158.2475 O.2     1  UNL1       -0.2745
     11 C         140.6327  145.0515  160.0547 C.3     1  UNL1        0.1116
     12 C         140.9306  144.5243  161.4271 C.ar    1  UNL1       -0.0130
     13 C         142.3243  144.6059  161.9756 C.ar    1  UNL1       -0.0022
     14 C         142.6222  144.0788  163.3479 C.ar    1  UNL1        0.0190
     15 C         141.5264  143.4700  164.1717 C.ar    1  UNL1        0.0862
     16 C         140.1327  143.3884  163.6232 C.ar    1  UNL1        0.0190
     17 C         139.8348  143.9155  162.2508 C.ar    1  UNL1       -0.0022
     18 N         141.8243  142.9428  165.5441 N.ar    1  UNL1       -0.1886
     19 C         143.1635  142.4851  166.0412 C.ar    1  UNL1        0.2258
     20 N         143.0023  142.0402  167.4646 N.ar    1  UNL1       -0.1045
     21 N         141.5634  142.2230  167.8472 N.ar    1  UNL1       -0.0222
     22 N         140.8354  142.7808  166.6602 N.ar    1  UNL1       -0.0385
     23 C         139.1034  138.7987  161.2011 C.3     1  UNL1        0.0991
     24 C         138.8469  138.8476  162.6781 C.ar    1  UNL1       -0.0062
     25 C         139.0588  137.6223  163.5170 C.ar    1  UNL1       -0.0030
     26 C         138.8023  137.6711  164.9942 C.ar    1  UNL1        0.0036
     27 C         138.3339  138.9452  165.6324 C.ar    1  UNL1        0.0714
     28 C         138.1220  140.1705  164.7934 C.ar    1  UNL1        0.0036
     29 C         138.3785  140.1217  163.3163 C.ar    1  UNL1       -0.0030
     30 C         138.0774  138.9941  167.1094 C.3     1  UNL1        0.4186
     31 F         137.8209  139.0430  168.5865 F       1  UNL1       -0.1659
     32 F         139.0049  140.1665  167.2317 F       1  UNL1       -0.1659
     33 F         137.1498  137.8217  166.9871 F       1  UNL1       -0.1659
@<TRIPOS>BOND
     1     7     8    1
     2     8     9   am
     3     9    10    2
     4     9    11    1
     5    11    12    1
     6    12    13   ar
     7    13    14   ar
     8    14    15   ar
     9    15    18    1
    10    18    19   ar
    11    19    20   ar
    12    20    21   ar
    13    21    22   ar
    14    15    16   ar
    15    16    17   ar
    16     8     1    1
    17     1     2    1
    18     2     3    1
    19     3     4    1
    20     4    23    1
    21    23    24    1
    22    24    25   ar
    23    25    26   ar
    24    26    27   ar
    25    27    30    1
    26    30    31    1
    27    30    32    1
    28    30    33    1
    29    27    28   ar
    30    28    29   ar
    31     4     5    1
    32     5     6    1
    33    17    12   ar
    34     6     1    1
    35    22    18   ar
    36    29    24   ar
@<TRIPOS>MOLECULE
*****
 33 36 0 0 0
SMALL
GASTEIGER

@<TRIPOS>ATOM
      1 C         141.9517  141.3247  160.3084 C.3     1  UNL1        0.0782
      2 C         143.4345  141.1389  160.4365 C.3     1  UNL1        0.0372
      3 C         144.1176  141.4330  161.7391 C.3     1  UNL1        0.0741
      4 N         143.3177  141.9130  162.9138 N.3     1  UNL1       -0.2689
      5 C         141.8347  142.0989  162.7857 C.3     1  UNL1        0.0741
      6 C         141.1517  141.8048  161.4831 C.3     1  UNL1        0.0372
      7 C         140.9359  142.1497  158.0639 C.3     1  UNL1        0.1148
      8 N         141.2686  141.0306  159.0057 N.am    1  UNL1       -0.2790
      9 C         140.9184  139.6174  158.6448 C.2     1  UNL1        0.2301
     10 O         140.2353  139.3233  157.3422 O.2     1  UNL1       -0.2745
     11 C         141.2511  138.4984  159.5866 C.3     1  UNL1        0.1116
     12 C         140.5804  138.4209  160.9261 C.ar    1  UNL1       -0.0130
     13 C         139.1035  138.6569  161.0401 C.ar    1  UNL1       -0.0022
     14 C         138.4328  138.5794  162.3796 C.ar    1  UNL1        0.0190
     15 C         139.2390  138.2659  163.6050 C.ar    1  UNL1        0.0862
     16 C         140.7159  138.0299  163.4910 C.ar    1  UNL1        0.0190
     17 C         141.3866  138.1074  162.1516 C.ar    1  UNL1       -0.0022
     18 N         138.5683  138.1884  164.9445 N.ar    1  UNL1       -0.1886
     19 C         138.1263  139.3546  165.7780 C.ar    1  UNL1        0.2258
     20 N         137.5066  138.8181  167.0343 N.ar    1  UNL1       -0.1045
     21 N         137.5656  137.3203  166.9771 N.ar    1  UNL1       -0.0222
     22 N         138.2217  136.9312  165.6856 N.ar    1  UNL1       -0.0385
     23 C         144.0007  142.2071  164.2164 C.3     1  UNL1        0.0991
     24 C         143.5203  141.5553  165.4791 C.ar    1  UNL1       -0.0062
     25 C         143.2821  140.0748  165.5151 C.ar    1  UNL1       -0.0030
     26 C         142.8016  139.4230  166.7779 C.ar    1  UNL1        0.0036
     27 C         142.5594  140.2517  168.0045 C.ar    1  UNL1        0.0714
     28 C         142.7977  141.7323  167.9684 C.ar    1  UNL1        0.0036
     29 C         143.2781  142.3840  166.7057 C.ar    1  UNL1       -0.0030
     30 C         142.0790  139.5999  169.2671 C.3     1  UNL1        0.4186
     31 F         141.5986  138.9482  170.5298 F       1  UNL1       -0.1659
     32 F         142.9345  138.4030  168.9748 F       1  UNL1       -0.1659
     33 F         141.2235  140.7968  169.5594 F       1  UNL1       -0.1659
@<TRIPOS>BOND
     1     7     8    1
     2     8     9   am
     3     9    10    2
     4     9    11    1
     5    11    12    1
     6    12    13   ar
     7    13    14   ar
     8    14    15   ar
     9    15    18    1
    10    18    19   ar
    11    19    20   ar
    12    20    21   ar
    13    21    22   ar
    14    15    16   ar
    15    16    17   ar
    16     8     1    1
    17     1     2    1
    18     2     3    1
    19     3     4    1
    20     4    23    1
    21    23    24    1
    22    24    25   ar
    23    25    26   ar
    24    26    27   ar
    25    27    30    1
    26    30    31    1
    27    30    32    1
    28    30    33    1
    29    27    28   ar
    30    28    29   ar
    31     4     5    1
    32     5     6    1
    33    17    12   ar
    34     6     1    1
    35    22    18   ar
    36    29    24   ar
@<TRIPOS>MOLECULE
*****
 33 36 0 0 0
SMALL
GASTEIGER

@<TRIPOS>ATOM
      1 C         141.3269  139.8590  168.0254 C.3     1  UNL1        0.0782
      2 C         140.0766  139.7609  167.2025 C.3     1  UNL1        0.0372
      3 C         140.1126  139.0918  165.8604 C.3     1  UNL1        0.0741
      4 N         141.3989  138.5209  165.3413 N.3     1  UNL1       -0.2689
      5 C         142.6492  138.6189  166.1642 C.3     1  UNL1        0.0741
      6 C         142.6132  139.2880  167.5062 C.3     1  UNL1        0.0372
      7 C         140.6558  139.8331  170.5351 C.3     1  UNL1        0.1148
      8 N         141.2909  140.5281  169.3674 N.am    1  UNL1       -0.2790
      9 C         141.8901  141.8922  169.5417 C.2     1  UNL1        0.2301
     10 O         141.8541  142.5612  170.8837 O.2     1  UNL1       -0.2745
     11 C         142.5252  142.5871  168.3740 C.3     1  UNL1        0.1116
     12 C         141.7761  142.7180  167.0810 C.ar    1  UNL1       -0.0130
     13 C         140.3528  143.1916  167.0834 C.ar    1  UNL1       -0.0022
     14 C         139.6038  143.3225  165.7905 C.ar    1  UNL1        0.0190
     15 C         140.2780  142.9799  164.4951 C.ar    1  UNL1        0.0862
     16 C         141.7012  142.5063  164.4926 C.ar    1  UNL1        0.0190
     17 C         142.4503  142.3754  165.7856 C.ar    1  UNL1       -0.0022
     18 N         139.5289  143.1108  163.2021 N.ar    1  UNL1       -0.1886
     19 C         138.1249  142.6489  162.9459 C.ar    1  UNL1        0.2258
     20 N         137.7805  142.9792  161.5238 N.ar    1  UNL1       -0.1045
     21 N         138.9716  143.6453  160.9012 N.ar    1  UNL1       -0.0222
     22 N         140.0521  143.7266  161.9384 N.ar    1  UNL1       -0.0385
     23 C         141.4348  137.8518  163.9993 C.3     1  UNL1        0.0991
     24 C         140.6197  138.4001  162.8658 C.ar    1  UNL1       -0.0062
     25 C         141.0782  139.6289  162.1381 C.ar    1  UNL1       -0.0030
     26 C         140.2630  140.1773  161.0045 C.ar    1  UNL1        0.0036
     27 C         138.9894  139.4967  160.5987 C.ar    1  UNL1        0.0714
     28 C         138.5309  138.2678  161.3265 C.ar    1  UNL1        0.0036
     29 C         139.3461  137.7195  162.4600 C.ar    1  UNL1       -0.0030
     30 C         138.1742  140.0450  159.4652 C.3     1  UNL1        0.4186
     31 F         137.3591  140.5933  158.3317 F       1  UNL1       -0.1659
     32 F         139.4331  140.3714  158.7178 F       1  UNL1       -0.1659
     33 F         136.9154  139.7186  160.2126 F       1  UNL1       -0.1659
@<TRIPOS>BOND
     1     7     8    1
     2     8     9   am
     3     9    10    2
     4     9    11    1
     5    11    12    1
     6    12    13   ar
     7    13    14   ar
     8    14    15   ar
     9    15    18    1
    10    18    19   ar
    11    19    20   ar
    12    20    21   ar
    13    21    22   ar
    14    15    16   ar
    15    16    17   ar
    16     8     1    1
    17     1     2    1
    18     2     3    1
    19     3     4    1
    20     4    23    1
    21    23    24    1
    22    24    25   ar
    23    25    26   ar
    24    26    27   ar
    25    27    30    1
    26    30    31    1
    27    30    32    1
    28    30    33    1
    29    27    28   ar
    30    28    29   ar
    31     4     5    1
    32     5     6    1
    33    17    12   ar
    34     6     1    1
    35    22    18   ar
    36    29    24   ar
@<TRIPOS>MOLECULE
*****
 33 36 0 0 0
SMALL
GASTEIGER

@<TRIPOS>ATOM
      1 C         142.5688  140.3306  167.1802 C.3     1  UNL1        0.0782
      2 C         142.9827  138.9720  166.6977 C.3     1  UNL1        0.0372
      3 C         143.7708  138.8346  165.4289 C.3     1  UNL1        0.0741
      4 N         144.1452  140.0559  164.6425 N.3     1  UNL1       -0.2689
      5 C         143.7313  141.4146  165.1250 C.3     1  UNL1        0.0741
      6 C         142.9431  141.5520  166.3938 C.3     1  UNL1        0.0372
      7 C         142.4803  140.7946  169.7349 C.3     1  UNL1        0.1148
      8 N         141.7806  140.4680  168.4490 N.am    1  UNL1       -0.2790
      9 C         140.2927  140.2789  168.4318 C.2     1  UNL1        0.2301
     10 O         139.5045  140.4163  169.7006 O.2     1  UNL1       -0.2745
     11 C         139.5929  139.9523  167.1458 C.3     1  UNL1        0.1116
     12 C         139.5885  140.9451  166.0213 C.ar    1  UNL1       -0.0130
     13 C         139.5420  142.4146  166.3184 C.ar    1  UNL1       -0.0022
     14 C         139.5376  143.4073  165.1939 C.ar    1  UNL1        0.0190
     15 C         139.5796  142.9304  163.7723 C.ar    1  UNL1        0.0862
     16 C         139.6261  141.4609  163.4753 C.ar    1  UNL1        0.0190
     17 C         139.6305  140.4682  164.5997 C.ar    1  UNL1       -0.0022
     18 N         139.5751  143.9232  162.6478 N.ar    1  UNL1       -0.1886
     19 C         139.7083  143.6029  161.1884 C.ar    1  UNL1        0.2258
     20 N         139.6522  144.8922  160.4239 N.ar    1  UNL1       -0.1045
     21 N         139.4844  146.0093  161.4108 N.ar    1  UNL1       -0.0222
     22 N         139.4368  145.4104  162.7852 N.ar    1  UNL1       -0.0385
     23 C         144.9333  139.9185  163.3737 C.3     1  UNL1        0.0991
     24 C         144.2420  139.5340  162.0993 C.ar    1  UNL1       -0.0062
     25 C         143.8637  138.1035  161.8533 C.ar    1  UNL1       -0.0030
     26 C         143.1724  137.7190  160.5788 C.ar    1  UNL1        0.0036
     27 C         142.8594  138.7651  159.5503 C.ar    1  UNL1        0.0714
     28 C         143.2378  140.1956  159.7963 C.ar    1  UNL1        0.0036
     29 C         143.9291  140.5801  161.0707 C.ar    1  UNL1       -0.0030
     30 C         142.1681  138.3806  158.2759 C.3     1  UNL1        0.4186
     31 F         141.4768  137.9962  157.0014 F       1  UNL1       -0.1659
     32 F         142.9752  137.1176  158.2191 F       1  UNL1       -0.1659
     33 F         141.3610  139.6437  158.3326 F       1  UNL1       -0.1659
@<TRIPOS>BOND
     1     7     8    1
     2     8     9   am
     3     9    10    2
     4     9    11    1
     5    11    12    1
     6    12    13   ar
     7    13    14   ar
     8    14    15   ar
     9    15    18    1
    10    18    19   ar
    11    19    20   ar
    12    20    21   ar
    13    21    22   ar
    14    15    16   ar
    15    16    17   ar
    16     8     1    1
    17     1     2    1
    18     2     3    1
    19     3     4    1
    20     4    23    1
    21    23    24    1
    22    24    25   ar
    23    25    26   ar
    24    26    27   ar
    25    27    30    1
    26    30    31    1
    27    30    32    1
    28    30    33    1
    29    27    28   ar
    30    28    29   ar
    31     4     5    1
    32     5     6    1
    33    17    12   ar
    34     6     1    1
    35    22    18   ar
    36    29    24   ar
