@<TRIPOS>MOLECULE
*****
 45 50 0 0 0
SMALL
GASTEIGER

@<TRIPOS>ATOM
      1 C         138.7339  141.8491  159.9214 C.3     1  UNL1        0.0546
      2 C         138.2223  140.4955  159.5266 C.3     1  UNL1        0.0180
      3 C         139.3070  139.7945  158.7637 C.3     1  UNL1        0.0311
      4 C         139.6612  138.5246  158.0482 C.3     1  UNL1        0.0973
      5 N         141.0621  138.6602  157.5293 N.am    1  UNL1       -0.2455
      6 C         141.8186  137.6240  156.7521 C.2     1  UNL1        0.4049
      7 O         143.2204  137.9029  156.2971 O.2     1  UNL1       -0.2262
      8 C         141.5737  140.0138  157.9242 C.3     1  UNL1        0.1053
      9 C         140.4890  140.7149  158.6871 C.3     1  UNL1        0.0903
     10 C         140.1348  141.9847  159.4026 C.3     1  UNL1        0.0261
     11 C         141.6709  141.6352  158.6105 C.2     1  UNL1        0.2267
     12 O         141.8318  142.5531  157.4351 O.2     1  UNL1       -0.2748
     13 N         142.6921  141.6377  159.7093 N.am    1  UNL1       -0.2750
     14 C         143.8740  142.5581  159.6327 C.3     1  UNL1        0.1000
     15 C         144.8951  142.5605  160.7315 C.3     1  UNL1        0.0670
     16 C         144.7342  141.6426  161.9069 C.ar    1  UNL1        0.0583
     17 N         145.7553  141.6451  163.0057 N.ar    1  UNL1       -0.2484
     18 C         145.5945  140.7271  164.1811 C.ar    1  UNL1        0.1023
     19 C         144.4124  139.8067  164.2576 C.ar    1  UNL1        0.0902
     20 C         143.3914  139.8043  163.1589 C.ar    1  UNL1        0.0040
     21 C         143.5523  140.7222  161.9835 C.ar    1  UNL1        0.0113
     22 C         142.5312  140.7198  160.8847 C.3     1  UNL1        0.1213
     23 C         144.2516  138.8888  165.4330 C.3     1  UNL1        0.4200
     24 F         144.0907  137.9709  166.6084 F       1  UNL1       -0.1658
     25 F         142.7811  139.1837  165.4620 F       1  UNL1       -0.1658
     26 F         145.7220  138.5940  165.4040 F       1  UNL1       -0.1658
     27 N         137.9774  142.8854  160.6987 N.3     1  UNL1       -0.2975
     28 H         138.2478  143.7931  160.3200 H       1  UNL1        0.1232
     29 C         138.4065  144.2971  162.8371 C.3     1  UNL1        0.1591
     30 C         138.5677  144.3836  164.3259 C.3     1  UNL1        0.1729
     31 O         138.4608  143.1450  165.1651 O.3     1  UNL1       -0.3511
     32 C         138.1928  141.8197  164.5155 C.3     1  UNL1        0.1437
     33 C         138.0316  141.7332  163.0267 C.3     1  UNL1        0.0503
     34 C         138.1385  142.9719  162.1875 C.3     1  UNL1        0.0865
     35 C         139.8625  146.0886  161.6451 C.3     1  UNL1        0.1742
     36 O         138.5134  145.5357  161.9979 O.3     1  UNL1       -0.3496
     37 O         141.1732  136.3088  156.4298 O.3     1  UNL1       -0.4330
     38 C         141.6912  135.4777  155.2937 C.3     1  UNL1        0.2274
     39 C         141.7104  133.9820  155.4064 C.3     1  UNL1        0.1203
     40 N         142.8890  133.2916  156.0262 N.3     1  UNL1       -0.2653
     41 C         143.4670  133.8035  157.3122 C.3     1  UNL1        0.1047
     42 C         144.6456  133.1132  157.9321 C.3     1  UNL1        0.1595
     43 O         145.2463  131.9109  157.2659 O.3     1  UNL1       -0.3508
     44 C         144.6682  131.3990  155.9799 C.3     1  UNL1        0.1595
     45 C         143.4896  132.0894  155.3600 C.3     1  UNL1        0.1047
@<TRIPOS>BOND
     1    35    36    1
     2    36    29    1
     3    29    30    1
     4    30    31    1
     5    31    32    1
     6    32    33    1
     7    33    34    1
     8    34    27    1
     9     1    27    1
    10     1     2    1
    11     3     2    1
    12     3     4    1
    13     4     5    1
    14     5     6   am
    15     6     7    2
    16     6    37    1
    17    37    38    1
    18    38    39    1
    19    39    40    1
    20    40    41    1
    21    41    42    1
    22    42    43    1
    23    43    44    1
    24    44    45    1
    25     5     8    1
    26     8     9    1
    27     9    11    1
    28    11    12    2
    29    11    13   am
    30    13    14    1
    31    14    15    1
    32    15    16    1
    33    16    17   ar
    34    17    18   ar
    35    18    19   ar
    36    19    23    1
    37    23    24    1
    38    23    25    1
    39    23    26    1
    40    19    20   ar
    41    20    21   ar
    42    21    22    1
    43     9    10    1
    44    34    29    1
    45    10     1    1
    46     9     3    1
    47    22    13    1
    48    45    40    1
    49    21    16   ar
    50    27    28    1
@<TRIPOS>MOLECULE
*****
 45 50 0 0 0
SMALL
GASTEIGER

@<TRIPOS>ATOM
      1 C         138.8679  141.7933  159.5784 C.3     1  UNL1        0.0546
      2 C         138.3178  140.8261  158.5725 C.3     1  UNL1        0.0180
      3 C         139.4104  139.8651  158.2079 C.3     1  UNL1        0.0311
      4 C         139.7456  138.6735  157.3608 C.3     1  UNL1        0.0973
      5 N         141.1782  138.3103  157.6178 N.am    1  UNL1       -0.2455
      6 C         141.9288  137.1786  156.9808 C.2     1  UNL1        0.4049
      7 O         143.3653  136.9361  157.3382 O.2     1  UNL1       -0.2262
      8 C         141.7283  139.2776  158.6237 C.3     1  UNL1        0.1053
      9 C         140.6357  140.2385  158.9884 C.3     1  UNL1        0.0903
     10 C         140.3005  141.4302  159.8354 C.3     1  UNL1        0.0261
     11 C         141.8610  140.6119  159.7689 C.2     1  UNL1        0.2267
     12 O         143.0555  141.1814  159.0626 O.2     1  UNL1       -0.2748
     13 N         141.8918  140.4158  161.2557 N.am    1  UNL1       -0.2750
     14 C         143.1171  140.7892  162.0362 C.3     1  UNL1        0.1000
     15 C         143.1479  140.5930  163.5230 C.3     1  UNL1        0.0670
     16 C         141.9534  140.0235  164.2293 C.ar    1  UNL1        0.0583
     17 N         141.9842  139.8274  165.7161 N.ar    1  UNL1       -0.2484
     18 C         140.7897  139.2579  166.4224 C.ar    1  UNL1        0.1023
     19 C         139.5644  138.8845  165.6418 C.ar    1  UNL1        0.0902
     20 C         139.5336  139.0806  164.1551 C.ar    1  UNL1        0.0040
     21 C         140.7281  139.6501  163.4488 C.ar    1  UNL1        0.0113
     22 C         140.6973  139.8463  161.9620 C.3     1  UNL1        0.1213
     23 C         138.3699  138.3150  166.3481 C.3     1  UNL1        0.4200
     24 F         137.1754  137.7455  167.0544 F       1  UNL1       -0.1658
     25 F         138.3110  139.5289  167.2273 F       1  UNL1       -0.1658
     26 F         138.4289  137.1011  165.4689 F       1  UNL1       -0.1658
     27 N         138.1173  142.9251  160.2155 N.3     1  UNL1       -0.2975
     28 H         138.4934  143.7871  159.8207 H       1  UNL1        0.1232
     29 C         138.6433  144.3606  162.3161 C.3     1  UNL1        0.1591
     30 C         138.6576  144.5248  163.8070 C.3     1  UNL1        0.1729
     31 O         138.1600  143.4177  164.6882 O.3     1  UNL1       -0.3511
     32 C         137.6481  142.1463  164.0786 C.3     1  UNL1        0.1437
     33 C         137.6339  141.9821  162.5877 C.3     1  UNL1        0.0503
     34 C         138.1315  143.0893  161.7064 C.3     1  UNL1        0.0865
     35 C         140.5468  145.4363  160.9126 C.3     1  UNL1        0.1742
     36 O         139.1409  145.4677  161.4348 O.3     1  UNL1       -0.3496
     37 O         141.2430  136.2894  155.9863 O.3     1  UNL1       -0.4330
     38 C         141.9968  135.1646  155.3410 C.3     1  UNL1        0.2274
     39 C         141.7038  133.7455  155.7290 C.3     1  UNL1        0.1203
     40 N         142.7314  132.9435  156.4712 N.3     1  UNL1       -0.2653
     41 C         142.6758  131.4448  156.4445 C.3     1  UNL1        0.1047
     42 C         143.7034  130.6428  157.1866 C.3     1  UNL1        0.1595
     43 O         144.7867  131.3395  157.9555 O.3     1  UNL1       -0.3508
     44 C         144.8423  132.8383  157.9822 C.3     1  UNL1        0.1595
     45 C         143.8146  133.6402  157.2400 C.3     1  UNL1        0.1047
@<TRIPOS>BOND
     1    35    36    1
     2    36    29    1
     3    29    30    1
     4    30    31    1
     5    31    32    1
     6    32    33    1
     7    33    34    1
     8    34    27    1
     9     1    27    1
    10     1     2    1
    11     3     2    1
    12     3     4    1
    13     4     5    1
    14     5     6   am
    15     6     7    2
    16     6    37    1
    17    37    38    1
    18    38    39    1
    19    39    40    1
    20    40    41    1
    21    41    42    1
    22    42    43    1
    23    43    44    1
    24    44    45    1
    25     5     8    1
    26     8     9    1
    27     9    11    1
    28    11    12    2
    29    11    13   am
    30    13    14    1
    31    14    15    1
    32    15    16    1
    33    16    17   ar
    34    17    18   ar
    35    18    19   ar
    36    19    23    1
    37    23    24    1
    38    23    25    1
    39    23    26    1
    40    19    20   ar
    41    20    21   ar
    42    21    22    1
    43     9    10    1
    44    34    29    1
    45    10     1    1
    46     9     3    1
    47    22    13    1
    48    45    40    1
    49    21    16   ar
    50    27    28    1
@<TRIPOS>MOLECULE
*****
 45 50 0 0 0
SMALL
GASTEIGER

@<TRIPOS>ATOM
      1 C         138.8716  141.8962  160.1779 C.3     1  UNL1        0.0546
      2 C         139.7010  142.0862  158.9426 C.3     1  UNL1        0.0180
      3 C         140.5045  140.8380  158.7272 C.3     1  UNL1        0.0311
      4 C         141.5137  140.1840  157.8307 C.3     1  UNL1        0.0973
      5 N         141.8046  138.8184  158.3787 N.am    1  UNL1       -0.2455
      6 C         142.7576  137.8183  157.7941 C.2     1  UNL1        0.4049
      7 O         142.9459  136.4856  158.4563 O.2     1  UNL1       -0.2262
      8 C         140.9752  138.6283  159.6140 C.3     1  UNL1        0.1053
      9 C         140.1717  139.8765  159.8294 C.3     1  UNL1        0.0903
     10 C         139.1625  140.5305  160.7260 C.3     1  UNL1        0.0261
     11 C         139.8389  138.9151  160.9316 C.2     1  UNL1        0.2267
     12 O         138.9301  137.7522  160.6635 O.2     1  UNL1       -0.2748
     13 N         140.4148  139.1165  162.3020 N.am    1  UNL1       -0.2750
     14 C         140.0820  138.1551  163.4041 C.3     1  UNL1        0.1000
     15 C         140.6579  138.3565  164.7744 C.3     1  UNL1        0.0670
     16 C         141.5667  139.5194  165.0425 C.ar    1  UNL1        0.0583
     17 N         142.1426  139.7208  166.4128 N.ar    1  UNL1       -0.2484
     18 C         143.0514  140.8837  166.6809 C.ar    1  UNL1        0.1023
     19 C         143.3842  141.8451  165.5787 C.ar    1  UNL1        0.0902
     20 C         142.8083  141.6437  164.2084 C.ar    1  UNL1        0.0040
     21 C         141.8995  140.4808  163.9403 C.ar    1  UNL1        0.0113
     22 C         141.3236  140.2794  162.5701 C.3     1  UNL1        0.1213
     23 C         144.2930  143.0080  165.8468 C.3     1  UNL1        0.4200
     24 F         145.2017  144.1709  166.1149 F       1  UNL1       -0.1658
     25 F         144.6666  143.0508  164.3947 F       1  UNL1       -0.1658
     26 F         143.9193  142.9652  167.2988 F       1  UNL1       -0.1658
     27 N         137.9186  142.8963  160.7626 N.3     1  UNL1       -0.2975
     28 H         137.9766  143.7327  160.1818 H       1  UNL1        0.1232
     29 C         138.8326  144.6054  162.4926 C.3     1  UNL1        0.1591
     30 C         138.9950  145.0536  163.9149 C.3     1  UNL1        0.1729
     31 O         138.4056  144.2408  165.0293 O.3     1  UNL1       -0.3511
     32 C         137.6539  142.9797  164.7215 C.3     1  UNL1        0.1437
     33 C         137.4916  142.5316  163.2992 C.3     1  UNL1        0.0503
     34 C         138.0809  143.3444  162.1848 C.3     1  UNL1        0.0865
     35 C         140.8148  145.1350  160.8986 C.3     1  UNL1        0.1742
     36 O         139.4220  145.4183  161.3782 O.3     1  UNL1       -0.3496
     37 O         143.5223  138.1510  156.5473 O.3     1  UNL1       -0.4330
     38 C         143.4390  137.2474  155.3529 C.3     1  UNL1        0.2274
     39 C         144.1572  135.9304  155.3572 C.3     1  UNL1        0.1203
     40 N         143.4071  134.6681  155.6632 N.3     1  UNL1       -0.2653
     41 C         143.9859  133.6636  156.6151 C.3     1  UNL1        0.1047
     42 C         143.2358  132.4013  156.9211 C.3     1  UNL1        0.1595
     43 O         141.9067  132.1433  156.2752 O.3     1  UNL1       -0.3508
     44 C         141.3278  133.1478  155.3234 C.3     1  UNL1        0.1595
     45 C         142.0781  134.4102  155.0174 C.3     1  UNL1        0.1047
@<TRIPOS>BOND
     1    35    36    1
     2    36    29    1
     3    29    30    1
     4    30    31    1
     5    31    32    1
     6    32    33    1
     7    33    34    1
     8    34    27    1
     9     1    27    1
    10     1     2    1
    11     3     2    1
    12     3     4    1
    13     4     5    1
    14     5     6   am
    15     6     7    2
    16     6    37    1
    17    37    38    1
    18    38    39    1
    19    39    40    1
    20    40    41    1
    21    41    42    1
    22    42    43    1
    23    43    44    1
    24    44    45    1
    25     5     8    1
    26     8     9    1
    27     9    11    1
    28    11    12    2
    29    11    13   am
    30    13    14    1
    31    14    15    1
    32    15    16    1
    33    16    17   ar
    34    17    18   ar
    35    18    19   ar
    36    19    23    1
    37    23    24    1
    38    23    25    1
    39    23    26    1
    40    19    20   ar
    41    20    21   ar
    42    21    22    1
    43     9    10    1
    44    34    29    1
    45    10     1    1
    46     9     3    1
    47    22    13    1
    48    45    40    1
    49    21    16   ar
    50    27    28    1
@<TRIPOS>MOLECULE
*****
 45 50 0 0 0
SMALL
GASTEIGER

@<TRIPOS>ATOM
      1 C         141.7079  143.8920  160.4196 C.3     1  UNL1        0.0546
      2 C         140.4098  144.4168  159.8815 C.3     1  UNL1        0.0180
      3 C         139.7716  143.3297  159.0685 C.3     1  UNL1        0.0311
      4 C         138.5750  142.9822  158.2335 C.3     1  UNL1        0.0973
      5 N         138.7391  141.5707  157.7531 N.am    1  UNL1       -0.2455
      6 C         137.7744  140.8165  156.8866 C.2     1  UNL1        0.4049
      7 O         138.0747  139.4030  156.4843 O.2     1  UNL1       -0.2262
      8 C         140.0372  141.0459  158.2911 C.3     1  UNL1        0.1053
      9 C         140.6753  142.1330  159.1041 C.3     1  UNL1        0.0903
     10 C         141.8720  142.4805  159.9391 C.3     1  UNL1        0.0261
     11 C         141.5790  140.9363  159.1397 C.2     1  UNL1        0.2267
     12 O         142.5822  140.7212  158.0455 O.2     1  UNL1       -0.2748
     13 N         141.4795  139.9547  160.2696 N.am    1  UNL1       -0.2750
     14 C         142.3832  138.7580  160.3052 C.3     1  UNL1        0.1000
     15 C         142.2837  137.7764  161.4350 C.3     1  UNL1        0.0670
     16 C         141.2805  137.9915  162.5293 C.ar    1  UNL1        0.0583
     17 N         141.1810  137.0099  163.6591 N.ar    1  UNL1       -0.2484
     18 C         140.1778  137.2249  164.7533 C.ar    1  UNL1        0.1023
     19 C         139.2741  138.4217  164.7177 C.ar    1  UNL1        0.0902
     20 C         139.3736  139.4033  163.5879 C.ar    1  UNL1        0.0040
     21 C         140.3768  139.1882  162.4936 C.ar    1  UNL1        0.0113
     22 C         140.4763  140.1697  161.3638 C.3     1  UNL1        0.1213
     23 C         138.2709  138.6368  165.8119 C.3     1  UNL1        0.4200
     24 F         137.2677  138.8518  166.9061 F       1  UNL1       -0.1658
     25 F         138.2572  140.1061  165.5105 F       1  UNL1       -0.1658
     26 F         138.2846  137.1674  166.1133 F       1  UNL1       -0.1658
     27 N         142.6725  144.6462  161.2860 N.3     1  UNL1       -0.2975
     28 H         143.4048  145.0014  160.6712 H       1  UNL1        0.1232
     29 C         142.8869  144.1642  163.8300 C.3     1  UNL1        0.1591
     30 C         143.5755  143.4691  164.9669 C.3     1  UNL1        0.1729
     31 O         144.7382  142.5607  164.6969 O.3     1  UNL1       -0.3511
     32 C         145.2124  142.3475  163.2898 C.3     1  UNL1        0.1437
     33 C         144.5238  143.0427  162.1528 C.3     1  UNL1        0.0503
     34 C         143.3611  143.9511  162.4230 C.3     1  UNL1        0.0865
     35 C         140.3347  144.5118  164.1694 C.3     1  UNL1        0.1742
     36 O         141.7242  145.0726  164.1000 O.3     1  UNL1       -0.3496
     37 O         136.5095  141.4757  156.4226 O.3     1  UNL1       -0.4330
     38 C         136.0159  141.2507  155.0242 C.3     1  UNL1        0.2274
     39 C         135.0425  140.1450  154.7412 C.3     1  UNL1        0.1203
     40 N         133.7091  140.1257  155.4279 N.3     1  UNL1       -0.2653
     41 C         132.7191  141.2238  155.1747 C.3     1  UNL1        0.1047
     42 C         131.3857  141.2045  155.8614 C.3     1  UNL1        0.1595
     43 O         131.0422  140.0869  156.8012 O.3     1  UNL1       -0.3508
     44 C         132.0321  138.9888  157.0543 C.3     1  UNL1        0.1595
     45 C         133.3656  139.0082  156.3676 C.3     1  UNL1        0.1047
@<TRIPOS>BOND
     1    35    36    1
     2    36    29    1
     3    29    30    1
     4    30    31    1
     5    31    32    1
     6    32    33    1
     7    33    34    1
     8    34    27    1
     9     1    27    1
    10     1     2    1
    11     3     2    1
    12     3     4    1
    13     4     5    1
    14     5     6   am
    15     6     7    2
    16     6    37    1
    17    37    38    1
    18    38    39    1
    19    39    40    1
    20    40    41    1
    21    41    42    1
    22    42    43    1
    23    43    44    1
    24    44    45    1
    25     5     8    1
    26     8     9    1
    27     9    11    1
    28    11    12    2
    29    11    13   am
    30    13    14    1
    31    14    15    1
    32    15    16    1
    33    16    17   ar
    34    17    18   ar
    35    18    19   ar
    36    19    23    1
    37    23    24    1
    38    23    25    1
    39    23    26    1
    40    19    20   ar
    41    20    21   ar
    42    21    22    1
    43     9    10    1
    44    34    29    1
    45    10     1    1
    46     9     3    1
    47    22    13    1
    48    45    40    1
    49    21    16   ar
    50    27    28    1
@<TRIPOS>MOLECULE
*****
 45 50 0 0 0
SMALL
GASTEIGER

@<TRIPOS>ATOM
      1 C         144.2164  142.4099  160.1639 C.3     1  UNL1        0.0546
      2 C         144.1055  141.3341  159.1246 C.3     1  UNL1        0.0180
      3 C         142.9962  141.7082  158.1867 C.3     1  UNL1        0.0311
      4 C         142.2420  141.2745  156.9648 C.3     1  UNL1        0.0973
      5 N         141.2013  142.3135  156.6692 N.am    1  UNL1       -0.2455
      6 C         140.2217  142.2822  155.5337 C.2     1  UNL1        0.4049
      7 O         139.2342  143.3985  155.3641 O.2     1  UNL1       -0.2262
      8 C         141.3123  143.3894  157.7085 C.3     1  UNL1        0.1053
      9 C         142.4216  143.0153  158.6464 C.3     1  UNL1        0.0903
     10 C         143.1757  143.4490  159.8683 C.3     1  UNL1        0.0261
     11 C         141.8470  144.3224  159.1061 C.2     1  UNL1        0.2267
     12 O         142.1690  145.5856  158.3641 O.2     1  UNL1       -0.2748
     13 N         140.9503  144.3663  160.3078 N.am    1  UNL1       -0.2750
     14 C         140.3757  145.6734  160.7675 C.3     1  UNL1        0.1000
     15 C         139.4791  145.7173  161.9692 C.3     1  UNL1        0.0670
     16 C         139.1571  144.4540  162.7112 C.ar    1  UNL1        0.0583
     17 N         138.2604  144.4980  163.9129 N.ar    1  UNL1       -0.2484
     18 C         137.9384  143.2347  164.6549 C.ar    1  UNL1        0.1023
     19 C         138.5130  141.9276  164.1952 C.ar    1  UNL1        0.0902
     20 C         139.4096  141.8837  162.9935 C.ar    1  UNL1        0.0040
     21 C         139.7317  143.1470  162.2515 C.ar    1  UNL1        0.0113
     22 C         140.6283  143.1031  161.0498 C.3     1  UNL1        0.1213
     23 C         138.1909  140.6644  164.9372 C.3     1  UNL1        0.4200
     24 F         137.8689  139.4012  165.6792 F       1  UNL1       -0.1658
     25 F         137.4273  140.1608  163.7484 F       1  UNL1       -0.1658
     26 F         138.9546  141.1680  166.1260 F       1  UNL1       -0.1658
     27 N         145.1961  142.4413  161.2994 N.3     1  UNL1       -0.2975
     28 H         145.9853  141.8569  161.0236 H       1  UNL1        0.1232
     29 C         144.2187  142.9727  163.6472 C.3     1  UNL1        0.1591
     30 C         143.7986  142.5166  165.0130 C.3     1  UNL1        0.1729
     31 O         143.9356  141.0731  165.3968 O.3     1  UNL1       -0.3511
     32 C         144.4929  140.0855  164.4148 C.3     1  UNL1        0.1437
     33 C         144.9130  140.5416  163.0490 C.3     1  UNL1        0.0503
     34 C         144.7759  141.9852  162.6652 C.3     1  UNL1        0.0865
     35 C         142.8262  145.1655  163.5987 C.3     1  UNL1        0.1742
     36 O         144.0817  144.4162  163.2634 O.3     1  UNL1       -0.3496
     37 O         140.2295  141.1345  154.5679 O.3     1  UNL1       -0.4330
     38 C         139.4612  139.8850  154.8817 C.3     1  UNL1        0.2274
     39 C         138.3300  139.9274  155.8660 C.3     1  UNL1        0.1203
     40 N         138.6060  139.7769  157.3326 N.3     1  UNL1       -0.2653
     41 C         137.8771  140.6339  158.3248 C.3     1  UNL1        0.1047
     42 C         138.1530  140.4834  159.7914 C.3     1  UNL1        0.1595
     43 O         139.1579  139.4759  160.2661 O.3     1  UNL1       -0.3508
     44 C         139.8868  138.6189  159.2739 C.3     1  UNL1        0.1595
     45 C         139.6108  138.7694  157.8072 C.3     1  UNL1        0.1047
@<TRIPOS>BOND
     1    35    36    1
     2    36    29    1
     3    29    30    1
     4    30    31    1
     5    31    32    1
     6    32    33    1
     7    33    34    1
     8    34    27    1
     9     1    27    1
    10     1     2    1
    11     3     2    1
    12     3     4    1
    13     4     5    1
    14     5     6   am
    15     6     7    2
    16     6    37    1
    17    37    38    1
    18    38    39    1
    19    39    40    1
    20    40    41    1
    21    41    42    1
    22    42    43    1
    23    43    44    1
    24    44    45    1
    25     5     8    1
    26     8     9    1
    27     9    11    1
    28    11    12    2
    29    11    13   am
    30    13    14    1
    31    14    15    1
    32    15    16    1
    33    16    17   ar
    34    17    18   ar
    35    18    19   ar
    36    19    23    1
    37    23    24    1
    38    23    25    1
    39    23    26    1
    40    19    20   ar
    41    20    21   ar
    42    21    22    1
    43     9    10    1
    44    34    29    1
    45    10     1    1
    46     9     3    1
    47    22    13    1
    48    45    40    1
    49    21    16   ar
    50    27    28    1
@<TRIPOS>MOLECULE
*****
 45 50 0 0 0
SMALL
GASTEIGER

@<TRIPOS>ATOM
      1 C         142.4017  138.2700  158.3950 C.3     1  UNL1        0.0546
      2 C         142.6955  139.6729  157.9531 C.3     1  UNL1        0.0180
      3 C         141.6753  140.5786  158.5767 C.3     1  UNL1        0.0311
      4 C         141.2264  142.0054  158.6890 C.3     1  UNL1        0.0973
      5 N         140.0246  142.0440  159.5858 N.am    1  UNL1       -0.2455
      6 C         139.2522  143.2703  159.9727 C.2     1  UNL1        0.4049
      7 O         138.0655  143.1532  160.8827 O.2     1  UNL1       -0.2262
      8 C         139.7307  140.6410  160.0277 C.3     1  UNL1        0.1053
      9 C         140.7509  139.7354  159.4041 C.3     1  UNL1        0.0903
     10 C         141.1999  138.3085  159.2918 C.3     1  UNL1        0.0261
     11 C         139.8266  138.8921  160.2314 C.2     1  UNL1        0.2267
     12 O         138.8502  137.9712  159.5617 O.2     1  UNL1       -0.2748
     13 N         139.8787  138.9697  161.7286 N.am    1  UNL1       -0.2750
     14 C         138.9544  138.1265  162.5559 C.3     1  UNL1        0.1000
     15 C         139.0065  138.2042  164.0530 C.3     1  UNL1        0.0670
     16 C         139.9829  139.1251  164.7227 C.ar    1  UNL1        0.0583
     17 N         140.0350  139.2027  166.2198 N.ar    1  UNL1       -0.2484
     18 C         141.0114  140.1236  166.8895 C.ar    1  UNL1        0.1023
     19 C         141.9358  140.9669  166.0621 C.ar    1  UNL1        0.0902
     20 C         141.8837  140.8892  164.5650 C.ar    1  UNL1        0.0040
     21 C         140.9072  139.9683  163.8953 C.ar    1  UNL1        0.0113
     22 C         140.8551  139.8906  162.3983 C.3     1  UNL1        0.1213
     23 C         142.9122  141.8878  166.7318 C.3     1  UNL1        0.4200
     24 F         143.8887  142.8087  167.4015 F       1  UNL1       -0.1658
     25 F         141.9061  142.1725  167.8073 F       1  UNL1       -0.1658
     26 F         143.9184  141.6031  165.6563 F       1  UNL1       -0.1658
     27 N         143.1740  137.0436  158.0081 N.3     1  UNL1       -0.2975
     28 H         144.0726  137.3635  157.6464 H       1  UNL1        0.1232
     29 C         142.9381  134.6308  157.0739 C.3     1  UNL1        0.1591
     30 C         142.3765  133.6800  156.0588 C.3     1  UNL1        0.1729
     31 O         141.4890  134.1910  154.9629 O.3     1  UNL1       -0.3511
     32 C         141.1632  135.6530  154.8819 C.3     1  UNL1        0.1437
     33 C         141.7248  136.6039  155.8970 C.3     1  UNL1        0.0503
     34 C         142.6124  136.0928  156.9930 C.3     1  UNL1        0.0865
     35 C         144.7278  132.9478  157.9193 C.3     1  UNL1        0.1742
     36 O         143.8256  134.1198  158.1699 O.3     1  UNL1       -0.3496
     37 O         139.6665  144.6137  159.4497 O.3     1  UNL1       -0.4330
     38 C         140.6788  145.4299  160.1973 C.3     1  UNL1        0.2274
     39 C         140.8019  145.2922  161.6859 C.3     1  UNL1        0.1203
     40 N         142.0507  144.7168  162.2852 N.3     1  UNL1       -0.2653
     41 C         142.8390  143.6872  161.5312 C.3     1  UNL1        0.1047
     42 C         144.0879  143.1118  162.1305 C.3     1  UNL1        0.1595
     43 O         144.5486  143.5661  163.4838 O.3     1  UNL1       -0.3508
     44 C         143.7603  144.5957  164.2378 C.3     1  UNL1        0.1595
     45 C         142.5114  145.1711  163.6385 C.3     1  UNL1        0.1047
@<TRIPOS>BOND
     1    35    36    1
     2    36    29    1
     3    29    30    1
     4    30    31    1
     5    31    32    1
     6    32    33    1
     7    33    34    1
     8    34    27    1
     9     1    27    1
    10     1     2    1
    11     3     2    1
    12     3     4    1
    13     4     5    1
    14     5     6   am
    15     6     7    2
    16     6    37    1
    17    37    38    1
    18    38    39    1
    19    39    40    1
    20    40    41    1
    21    41    42    1
    22    42    43    1
    23    43    44    1
    24    44    45    1
    25     5     8    1
    26     8     9    1
    27     9    11    1
    28    11    12    2
    29    11    13   am
    30    13    14    1
    31    14    15    1
    32    15    16    1
    33    16    17   ar
    34    17    18   ar
    35    18    19   ar
    36    19    23    1
    37    23    24    1
    38    23    25    1
    39    23    26    1
    40    19    20   ar
    41    20    21   ar
    42    21    22    1
    43     9    10    1
    44    34    29    1
    45    10     1    1
    46     9     3    1
    47    22    13    1
    48    45    40    1
    49    21    16   ar
    50    27    28    1
@<TRIPOS>MOLECULE
*****
 45 50 0 0 0
SMALL
GASTEIGER

@<TRIPOS>ATOM
      1 C         139.5345  143.2624  159.7026 C.3     1  UNL1        0.0546
      2 C         140.4362  143.2310  158.5043 C.3     1  UNL1        0.0180
      3 C         140.3929  141.8470  157.9277 C.3     1  UNL1        0.0311
      4 C         140.9234  140.9722  156.8308 C.3     1  UNL1        0.0973
      5 N         140.3229  139.6074  156.9948 N.am    1  UNL1       -0.2455
      6 C         140.5791  138.4199  156.1149 C.2     1  UNL1        0.4049
      7 O         139.9031  137.1124  156.4042 O.2     1  UNL1       -0.2262
      8 C         139.4212  139.6388  158.1931 C.3     1  UNL1        0.1053
      9 C         139.4645  141.0228  158.7697 C.3     1  UNL1        0.0903
     10 C         138.9339  141.8976  159.8666 C.3     1  UNL1        0.0261
     11 C         138.5360  140.1988  159.6117 C.2     1  UNL1        0.2267
     12 O         137.1104  140.0060  159.1871 O.2     1  UNL1       -0.2748
     13 N         139.0333  139.5675  160.8783 N.am    1  UNL1       -0.2750
     14 C         138.1049  138.7434  161.7202 C.3     1  UNL1        0.1000
     15 C         138.6022  138.1122  162.9868 C.3     1  UNL1        0.0670
     16 C         140.0278  138.3049  163.4114 C.ar    1  UNL1        0.0583
     17 N         140.5251  137.6736  164.6780 N.ar    1  UNL1       -0.2484
     18 C         141.9508  137.8664  165.1026 C.ar    1  UNL1        0.1023
     19 C         142.8792  138.6905  164.2605 C.ar    1  UNL1        0.0902
     20 C         142.3819  139.3217  162.9940 C.ar    1  UNL1        0.0040
     21 C         140.9563  139.1290  162.5694 C.ar    1  UNL1        0.0113
     22 C         140.4590  139.7602  161.3029 C.3     1  UNL1        0.1213
     23 C         144.3049  138.8832  164.6851 C.3     1  UNL1        0.4200
     24 F         145.7306  139.0760  165.1097 F       1  UNL1       -0.1658
     25 F         143.9367  138.5104  166.0906 F       1  UNL1       -0.1658
     26 F         144.6730  139.2561  163.2796 F       1  UNL1       -0.1658
     27 N         139.2783  144.4499  160.5825 N.3     1  UNL1       -0.2975
     28 H         139.9720  145.1553  160.3344 H       1  UNL1        0.1232
     29 C         140.6276  144.4574  162.8026 C.3     1  UNL1        0.1591
     30 C         140.6749  144.3095  164.2946 C.3     1  UNL1        0.1729
     31 O         139.4200  144.0063  165.0583 O.3     1  UNL1       -0.3511
     32 C         138.1178  143.8510  164.3301 C.3     1  UNL1        0.1437
     33 C         138.0706  143.9988  162.8382 C.3     1  UNL1        0.0503
     34 C         139.3255  144.3021  162.0744 C.3     1  UNL1        0.0865
     35 C         143.2066  144.2724  162.5476 C.3     1  UNL1        0.1742
     36 O         141.8825  144.7606  162.0389 O.3     1  UNL1       -0.3496
     37 O         141.5112  138.5398  154.9459 O.3     1  UNL1       -0.4330
     38 C         142.7406  137.6833  154.8760 C.3     1  UNL1        0.2274
     39 C         142.6548  136.2918  154.3224 C.3     1  UNL1        0.1203
     40 N         142.6535  135.1139  155.2511 N.3     1  UNL1       -0.2653
     41 C         141.9186  133.8619  154.8735 C.3     1  UNL1        0.1047
     42 C         141.9172  132.6840  155.8022 C.3     1  UNL1        0.1595
     43 O         142.6507  132.7581  157.1086 O.3     1  UNL1       -0.3508
     44 C         143.3856  134.0100  157.4862 C.3     1  UNL1        0.1595
     45 C         143.3870  135.1879  156.5574 C.3     1  UNL1        0.1047
@<TRIPOS>BOND
     1    35    36    1
     2    36    29    1
     3    29    30    1
     4    30    31    1
     5    31    32    1
     6    32    33    1
     7    33    34    1
     8    34    27    1
     9     1    27    1
    10     1     2    1
    11     3     2    1
    12     3     4    1
    13     4     5    1
    14     5     6   am
    15     6     7    2
    16     6    37    1
    17    37    38    1
    18    38    39    1
    19    39    40    1
    20    40    41    1
    21    41    42    1
    22    42    43    1
    23    43    44    1
    24    44    45    1
    25     5     8    1
    26     8     9    1
    27     9    11    1
    28    11    12    2
    29    11    13   am
    30    13    14    1
    31    14    15    1
    32    15    16    1
    33    16    17   ar
    34    17    18   ar
    35    18    19   ar
    36    19    23    1
    37    23    24    1
    38    23    25    1
    39    23    26    1
    40    19    20   ar
    41    20    21   ar
    42    21    22    1
    43     9    10    1
    44    34    29    1
    45    10     1    1
    46     9     3    1
    47    22    13    1
    48    45    40    1
    49    21    16   ar
    50    27    28    1
@<TRIPOS>MOLECULE
*****
 45 50 0 0 0
SMALL
GASTEIGER

@<TRIPOS>ATOM
      1 C         139.4555  143.2474  159.7164 C.3     1  UNL1        0.0546
      2 C         140.3138  143.2333  158.4863 C.3     1  UNL1        0.0180
      3 C         140.2327  141.8637  157.8802 C.3     1  UNL1        0.0311
      4 C         140.7131  141.0085  156.7454 C.3     1  UNL1        0.0973
      5 N         140.1016  139.6474  156.8995 N.am    1  UNL1       -0.2455
      6 C         140.3115  138.4777  155.9841 C.2     1  UNL1        0.4049
      7 O         139.6298  137.1720  156.2673 O.2     1  UNL1       -0.2262
      8 C         139.2433  139.6615  158.1295 C.3     1  UNL1        0.1053
      9 C         139.3243  141.0312  158.7357 C.3     1  UNL1        0.0903
     10 C         138.8439  141.8864  159.8705 C.3     1  UNL1        0.0261
     11 C         138.4159  140.1987  159.5911 C.2     1  UNL1        0.2267
     12 O         136.9872  139.9891  159.1851 O.2     1  UNL1       -0.2748
     13 N         138.9362  139.5759  160.8527 N.am    1  UNL1       -0.2750
     14 C         138.0278  138.7435  161.7081 C.3     1  UNL1        0.1000
     15 C         138.5481  138.1207  162.9696 C.3     1  UNL1        0.0670
     16 C         139.9768  138.3304  163.3757 C.ar    1  UNL1        0.0583
     17 N         140.4971  137.7076  164.6372 N.ar    1  UNL1       -0.2484
     18 C         141.9258  137.9172  165.0433 C.ar    1  UNL1        0.1023
     19 C         142.8342  138.7497  164.1877 C.ar    1  UNL1        0.0902
     20 C         142.3139  139.3725  162.9262 C.ar    1  UNL1        0.0040
     21 C         140.8852  139.1628  162.5202 C.ar    1  UNL1        0.0113
     22 C         140.3649  139.7856  161.2587 C.3     1  UNL1        0.1213
     23 C         144.2629  138.9593  164.5938 C.3     1  UNL1        0.4200
     24 F         145.6916  139.1690  164.9998 F       1  UNL1       -0.1658
     25 F         143.9021  138.6590  166.0184 F       1  UNL1       -0.1658
     26 F         144.6237  139.2597  163.1691 F       1  UNL1       -0.1658
     27 N         139.2455  144.4171  160.6317 N.3     1  UNL1       -0.2975
     28 H         139.9514  145.1119  160.3883 H       1  UNL1        0.1232
     29 C         140.6512  144.1203  162.7964 C.3     1  UNL1        0.1591
     30 C         140.7235  143.9319  164.2828 C.3     1  UNL1        0.1729
     31 O         139.4623  143.8519  165.0908 O.3     1  UNL1       -0.3511
     32 C         138.1288  143.9603  164.4126 C.3     1  UNL1        0.1437
     33 C         138.0565  144.1487  162.9262 C.3     1  UNL1        0.0503
     34 C         139.3178  144.2287  162.1181 C.3     1  UNL1        0.0865
     35 C         142.7320  142.9662  161.7531 C.3     1  UNL1        0.1742
     36 O         141.9124  144.2003  161.9883 O.3     1  UNL1       -0.3496
     37 O         141.2032  138.6138  154.7857 O.3     1  UNL1       -0.4330
     38 C         142.5981  138.0635  154.8223 C.3     1  UNL1        0.2274
     39 C         143.2673  137.8033  156.1394 C.3     1  UNL1        0.1203
     40 N         143.6010  138.9474  157.0502 N.3     1  UNL1       -0.2653
     41 C         144.3582  140.1299  156.5225 C.3     1  UNL1        0.1047
     42 C         144.6918  141.2740  157.4333 C.3     1  UNL1        0.1595
     43 O         144.2682  141.2358  158.8718 O.3     1  UNL1       -0.3508
     44 C         143.5110  140.0533  159.3994 C.3     1  UNL1        0.1595
     45 C         143.1774  138.9091  158.4886 C.3     1  UNL1        0.1047
@<TRIPOS>BOND
     1    35    36    1
     2    36    29    1
     3    29    30    1
     4    30    31    1
     5    31    32    1
     6    32    33    1
     7    33    34    1
     8    34    27    1
     9     1    27    1
    10     1     2    1
    11     3     2    1
    12     3     4    1
    13     4     5    1
    14     5     6   am
    15     6     7    2
    16     6    37    1
    17    37    38    1
    18    38    39    1
    19    39    40    1
    20    40    41    1
    21    41    42    1
    22    42    43    1
    23    43    44    1
    24    44    45    1
    25     5     8    1
    26     8     9    1
    27     9    11    1
    28    11    12    2
    29    11    13   am
    30    13    14    1
    31    14    15    1
    32    15    16    1
    33    16    17   ar
    34    17    18   ar
    35    18    19   ar
    36    19    23    1
    37    23    24    1
    38    23    25    1
    39    23    26    1
    40    19    20   ar
    41    20    21   ar
    42    21    22    1
    43     9    10    1
    44    34    29    1
    45    10     1    1
    46     9     3    1
    47    22    13    1
    48    45    40    1
    49    21    16   ar
    50    27    28    1
@<TRIPOS>MOLECULE
*****
 45 50 0 0 0
SMALL
GASTEIGER

@<TRIPOS>ATOM
      1 C         142.1949  139.4325  166.7192 C.3     1  UNL1        0.0546
      2 C         142.5097  138.4458  165.6342 C.3     1  UNL1        0.0180
      3 C         141.4846  138.6054  164.5509 C.3     1  UNL1        0.0311
      4 C         141.0455  138.0942  163.2108 C.3     1  UNL1        0.0973
      5 N         139.8258  138.8637  162.7980 N.am    1  UNL1       -0.2455
      6 C         139.0560  138.6788  161.5239 C.2     1  UNL1        0.4049
      7 O         137.8499  139.5264  161.2467 O.2     1  UNL1       -0.2262
      8 C         139.5111  139.8504  163.8830 C.3     1  UNL1        0.1053
      9 C         140.5362  139.6908  164.9664 C.3     1  UNL1        0.0903
     10 C         140.9753  140.2020  166.3065 C.3     1  UNL1        0.0261
     11 C         139.5879  140.7762  165.3819 C.2     1  UNL1        0.2267
     12 O         138.7663  140.6183  166.6269 O.2     1  UNL1       -0.2748
     13 N         139.4612  142.0196  164.5523 N.am    1  UNL1       -0.2750
     14 C         138.5130  143.1050  164.9678 C.3     1  UNL1        0.1000
     15 C         138.3863  144.3482  164.1383 C.3     1  UNL1        0.0670
     16 C         139.2079  144.5061  162.8933 C.ar    1  UNL1        0.0583
     17 N         139.0812  145.7495  162.0638 N.ar    1  UNL1       -0.2484
     18 C         139.9028  145.9074  160.8188 C.ar    1  UNL1        0.1023
     19 C         140.8511  144.8220  160.4033 C.ar    1  UNL1        0.0902
     20 C         140.9778  143.5787  161.2328 C.ar    1  UNL1        0.0040
     21 C         140.1562  143.4208  162.4778 C.ar    1  UNL1        0.0113
     22 C         140.2828  142.1775  163.3073 C.3     1  UNL1        0.1213
     23 C         141.6727  144.9799  159.1583 C.3     1  UNL1        0.4200
     24 F         142.4943  145.1378  157.9133 F       1  UNL1       -0.1658
     25 F         140.6783  145.9695  158.6275 F       1  UNL1       -0.1658
     26 F         142.6672  143.9903  159.6891 F       1  UNL1       -0.1658
     27 N         142.9647  139.6173  167.9934 N.3     1  UNL1       -0.2975
     28 H         143.0772  138.6915  168.4064 H       1  UNL1        0.1232
     29 C         142.8570  141.9453  169.1418 C.3     1  UNL1        0.1591
     30 C         142.3188  142.8381  170.2203 C.3     1  UNL1        0.1729
     31 O         141.3502  142.2957  171.2291 O.3     1  UNL1       -0.3511
     32 C         140.9197  140.8605  171.1593 C.3     1  UNL1        0.1437
     33 C         141.4579  139.9677  170.0807 C.3     1  UNL1        0.0503
     34 C         142.4266  140.5101  169.0719 C.3     1  UNL1        0.0865
     35 C         143.3657  142.7863  166.7368 C.3     1  UNL1        0.1742
     36 O         143.8256  142.4877  168.1330 O.3     1  UNL1       -0.3496
     37 O         139.4924  137.6464  160.5271 O.3     1  UNL1       -0.4330
     38 C         139.7732  138.0452  159.1086 C.3     1  UNL1        0.2274
     39 C         141.1400  138.5271  158.7215 C.3     1  UNL1        0.1203
     40 N         142.1633  138.8102  159.7810 N.3     1  UNL1       -0.2653
     41 C         142.2771  140.1872  160.3650 C.3     1  UNL1        0.1047
     42 C         143.3004  140.4703  161.4244 C.3     1  UNL1        0.1595
     43 O         144.2101  139.3765  161.9000 O.3     1  UNL1       -0.3508
     44 C         144.0964  137.9995  161.3160 C.3     1  UNL1        0.1595
     45 C         143.0729  137.7164  160.2565 C.3     1  UNL1        0.1047
@<TRIPOS>BOND
     1    35    36    1
     2    36    29    1
     3    29    30    1
     4    30    31    1
     5    31    32    1
     6    32    33    1
     7    33    34    1
     8    34    27    1
     9     1    27    1
    10     1     2    1
    11     3     2    1
    12     3     4    1
    13     4     5    1
    14     5     6   am
    15     6     7    2
    16     6    37    1
    17    37    38    1
    18    38    39    1
    19    39    40    1
    20    40    41    1
    21    41    42    1
    22    42    43    1
    23    43    44    1
    24    44    45    1
    25     5     8    1
    26     8     9    1
    27     9    11    1
    28    11    12    2
    29    11    13   am
    30    13    14    1
    31    14    15    1
    32    15    16    1
    33    16    17   ar
    34    17    18   ar
    35    18    19   ar
    36    19    23    1
    37    23    24    1
    38    23    25    1
    39    23    26    1
    40    19    20   ar
    41    20    21   ar
    42    21    22    1
    43     9    10    1
    44    34    29    1
    45    10     1    1
    46     9     3    1
    47    22    13    1
    48    45    40    1
    49    21    16   ar
    50    27    28    1
