@<TRIPOS>MOLECULE
*****
 35 38 0 0 0
SMALL
GASTEIGER

@<TRIPOS>ATOM
      1 C         137.4514  138.0640  167.1355 C.3     1  UNL1        0.0323
      2 C         138.5137  139.1017  166.9243 C.ar    1  UNL1       -0.0060
      3 C         139.0554  140.0339  167.9671 C.ar    1  UNL1        0.0438
      4 C         140.0974  140.8978  167.3205 C.ar    1  UNL1        0.0435
      5 N         140.1997  140.4994  165.8780 N.ar    1  UNL1       -0.3137
      6 C         139.2210  139.3895  165.6331 C.ar    1  UNL1        0.0372
      7 C         138.5861  138.3991  164.7025 C.3     1  UNL1        0.0456
      8 C         138.4653  137.7937  163.3353 C.3     1  UNL1        0.0275
      9 C         138.8908  137.7355  161.8982 C.3     1  UNL1        0.0898
     10 N         139.7488  138.2401  160.7760 N.am    1  UNL1       -0.3030
     11 C         140.8092  139.1723  160.2695 C.2     1  UNL1        0.2403
     12 O         140.9669  138.8288  158.8179 O.2     1  UNL1       -0.2733
     13 C         141.7879  140.2823  160.5144 C.3     1  UNL1        0.1466
     14 C         142.4523  140.5134  159.1895 C.3     1  UNL1        0.0311
     15 N         142.4227  141.2726  161.4450 N.pl3   1  UNL1       -0.3268
     16 C         142.5436  141.8780  162.8121 C.ar    1  UNL1        0.0507
     17 C         141.5506  141.1343  163.6552 C.ar    1  UNL1        0.0319
     18 C         141.3929  141.4778  165.1067 C.ar    1  UNL1        0.0646
     19 C         142.2281  142.5650  165.7152 C.ar    1  UNL1        0.0177
     20 C         143.2211  143.3087  164.8722 C.ar    1  UNL1        0.0072
     21 C         143.3788  142.9653  163.4206 C.ar    1  UNL1        0.0663
     22 C         140.8184  141.9354  168.1288 C.3     1  UNL1        0.0446
     23 C         140.4975  142.1093  169.5837 C.3     1  UNL1        0.0128
     24 C         140.5441  142.6482  170.9828 C.3     1  UNL1        0.0008
     25 C         141.5556  143.1603  169.4230 C.3     1  UNL1        0.0008
     26 C         139.4556  141.2455  170.2303 C.3     1  UNL1        0.0695
     27 C         138.7345  140.2079  169.4221 C.2     1  UNL1        0.1739
     28 O         137.6926  139.3440  170.0687 O.2     1  UNL1       -0.2913
     29 H         139.4920  137.6979  159.9954 H       1  UNL1        0.1495
     30 H         143.0745  141.7608  160.8916 H       1  UNL1        0.1472
     31 C         144.3719  143.7090  162.5775 C.2     1  UNL1        0.2439
     32 N         145.3192  142.9540  161.6929 N.am    1  UNL1       -0.3253
     33 O         144.4175  145.2077  162.6189 O.2     1  UNL1       -0.2703
     34 H         145.2892  141.9703  161.6657 H       1  UNL1        0.1453
     35 H         145.9709  143.4421  161.1395 H       1  UNL1        0.1453
@<TRIPOS>BOND
     1     1     2    1
     2     2     3   ar
     3     3     4   ar
     4     4     5   ar
     5     5     6   ar
     6     6     7    1
     7     7     8    1
     8     8     9    1
     9     9    10    1
    10    10    11   am
    11    11    12    2
    12    11    13    1
    13    13    14    1
    14    13    15    1
    15    15    16    1
    16    16    17   ar
    17    17    18   ar
    18    18    19   ar
    19    19    20   ar
    20    20    21   ar
    21    21    31    1
    22    31    32   am
    23    31    33    2
    24     4    22    1
    25    22    23    1
    26    23    24    1
    27    23    25    1
    28    23    26    1
    29    26    27    1
    30    27    28    2
    31     6     2   ar
    32    21    16   ar
    33    27     3    1
    34    18     5    1
    35    10    29    1
    36    15    30    1
    37    32    34    1
    38    32    35    1
@<TRIPOS>MOLECULE
*****
 35 38 0 0 0
SMALL
GASTEIGER

@<TRIPOS>ATOM
      1 C         144.1025  137.6456  166.8745 C.3     1  UNL1        0.0323
      2 C         143.2478  138.8713  166.7443 C.ar    1  UNL1       -0.0060
      3 C         142.5531  139.5851  167.8659 C.ar    1  UNL1        0.0438
      4 C         141.8137  140.7534  167.2844 C.ar    1  UNL1        0.0435
      5 N         142.0513  140.7617  165.8034 N.ar    1  UNL1       -0.3137
      6 C         142.9376  139.5986  165.4696 C.ar    1  UNL1        0.0372
      7 C         143.6861  138.7846  164.4561 C.3     1  UNL1        0.0456
      8 C         144.0963  138.5379  163.0345 C.3     1  UNL1        0.0275
      9 C         144.0581  138.9246  161.5858 C.3     1  UNL1        0.0898
     10 N         143.5820  139.8411  160.4979 N.am    1  UNL1       -0.3030
     11 C         142.7953  141.0418  160.0626 C.2     1  UNL1        0.2403
     12 O         142.9879  141.1143  158.5768 O.2     1  UNL1       -0.2733
     13 C         141.9090  142.2050  160.3964 C.3     1  UNL1        0.1466
     14 C         141.6428  142.8796  159.0834 C.3     1  UNL1        0.0311
     15 N         141.1605  143.0190  161.4099 N.pl3   1  UNL1       -0.3268
     16 C         140.7504  143.2657  162.8315 C.ar    1  UNL1        0.0507
     17 C         141.4041  142.1697  163.6199 C.ar    1  UNL1        0.0319
     18 C         141.2115  142.0973  165.1057 C.ar    1  UNL1        0.0646
     19 C         140.3652  143.1207  165.8031 C.ar    1  UNL1        0.0177
     20 C         139.7116  144.2167  165.0147 C.ar    1  UNL1        0.0072
     21 C         139.9041  144.2891  163.5289 C.ar    1  UNL1        0.0663
     22 C         141.0195  141.6587  168.1786 C.3     1  UNL1        0.0446
     23 C         140.9648  141.3958  169.6544 C.3     1  UNL1        0.0128
     24 C         140.6105  141.5581  171.1029 C.3     1  UNL1        0.0008
     25 C         140.1023  142.6204  169.5759 C.3     1  UNL1        0.0008
     26 C         141.7042  140.2274  170.2359 C.3     1  UNL1        0.0695
     27 C         142.4984  139.3221  169.3417 C.2     1  UNL1        0.1739
     28 O         143.2379  138.1537  169.9232 O.2     1  UNL1       -0.2913
     29 H         143.9756  139.4807  159.6707 H       1  UNL1        0.1495
     30 H         140.7315  143.7383  160.8924 H       1  UNL1        0.1472
     31 C         139.2504  145.3851  162.7404 C.2     1  UNL1        0.2439
     32 N         140.0559  146.5672  162.2889 N.am    1  UNL1       -0.3253
     33 O         137.7914  145.2990  162.4035 O.2     1  UNL1       -0.2703
     34 H         141.0136  146.6237  162.5101 H       1  UNL1        0.1453
     35 H         139.6269  147.2865  161.7714 H       1  UNL1        0.1453
@<TRIPOS>BOND
     1     1     2    1
     2     2     3   ar
     3     3     4   ar
     4     4     5   ar
     5     5     6   ar
     6     6     7    1
     7     7     8    1
     8     8     9    1
     9     9    10    1
    10    10    11   am
    11    11    12    2
    12    11    13    1
    13    13    14    1
    14    13    15    1
    15    15    16    1
    16    16    17   ar
    17    17    18   ar
    18    18    19   ar
    19    19    20   ar
    20    20    21   ar
    21    21    31    1
    22    31    32   am
    23    31    33    2
    24     4    22    1
    25    22    23    1
    26    23    24    1
    27    23    25    1
    28    23    26    1
    29    26    27    1
    30    27    28    2
    31     6     2   ar
    32    21    16   ar
    33    27     3    1
    34    18     5    1
    35    10    29    1
    36    15    30    1
    37    32    34    1
    38    32    35    1
@<TRIPOS>MOLECULE
*****
 35 38 0 0 0
SMALL
GASTEIGER

@<TRIPOS>ATOM
      1 C         144.9874  143.4868  166.1603 C.3     1  UNL1        0.0323
      2 C         143.7359  142.6947  165.9234 C.ar    1  UNL1       -0.0060
      3 C         142.8296  142.1401  166.9822 C.ar    1  UNL1        0.0438
      4 C         141.7044  141.4208  166.2992 C.ar    1  UNL1        0.0435
      5 N         141.9152  141.5308  164.8182 N.ar    1  UNL1       -0.3137
      6 C         143.1706  142.3181  164.5859 C.ar    1  UNL1        0.0372
      7 C         144.1647  142.9298  163.6438 C.3     1  UNL1        0.0456
      8 C         144.6311  143.2021  162.2444 C.3     1  UNL1        0.0275
      9 C         144.4448  143.0620  160.7627 C.3     1  UNL1        0.0898
     10 N         143.6557  142.5470  159.5956 N.am    1  UNL1       -0.3030
     11 C         142.4753  141.7951  159.0559 C.2     1  UNL1        0.2403
     12 O         142.6203  141.8635  157.5645 O.2     1  UNL1       -0.2733
     13 C         141.2198  141.0078  159.2882 C.3     1  UNL1        0.1466
     14 C         140.7149  140.6686  157.9171 C.3     1  UNL1        0.0311
     15 N         140.2258  140.3960  160.2302 N.pl3   1  UNL1       -0.3268
     16 C         139.7594  140.1237  161.6297 C.ar    1  UNL1        0.0507
     17 C         140.7789  140.7795  162.5132 C.ar    1  UNL1        0.0319
     18 C         140.6339  140.7111  164.0045 C.ar    1  UNL1        0.0646
     19 C         139.4694  139.9869  164.6124 C.ar    1  UNL1        0.0177
     20 C         138.4500  139.3311  163.7290 C.ar    1  UNL1        0.0072
     21 C         138.5949  139.3995  162.2376 C.ar    1  UNL1        0.0663
     22 C         140.6333  140.7586  167.1142 C.3     1  UNL1        0.0446
     23 C         140.6873  140.8156  168.6121 C.3     1  UNL1        0.0128
     24 C         140.3044  140.5964  170.0458 C.3     1  UNL1        0.0008
     25 C         139.4292  140.0202  168.4270 C.3     1  UNL1        0.0008
     26 C         141.8125  141.5349  169.2951 C.3     1  UNL1        0.0695
     27 C         142.8837  142.1972  168.4802 C.2     1  UNL1        0.1739
     28 O         144.0089  142.9165  169.1632 O.2     1  UNL1       -0.2913
     29 H         144.1519  142.8474  158.8001 H       1  UNL1        0.1495
     30 H         139.5567  139.9656  159.6504 H       1  UNL1        0.1472
     31 C         137.5754  138.7437  161.3540 C.2     1  UNL1        0.2439
     32 N         137.1569  137.3272  161.6152 N.am    1  UNL1       -0.3253
     33 O         136.9746  139.5044  160.2094 O.2     1  UNL1       -0.2703
     34 H         137.5512  136.8279  162.3665 H       1  UNL1        0.1453
     35 H         136.4877  136.8967  161.0353 H       1  UNL1        0.1453
@<TRIPOS>BOND
     1     1     2    1
     2     2     3   ar
     3     3     4   ar
     4     4     5   ar
     5     5     6   ar
     6     6     7    1
     7     7     8    1
     8     8     9    1
     9     9    10    1
    10    10    11   am
    11    11    12    2
    12    11    13    1
    13    13    14    1
    14    13    15    1
    15    15    16    1
    16    16    17   ar
    17    17    18   ar
    18    18    19   ar
    19    19    20   ar
    20    20    21   ar
    21    21    31    1
    22    31    32   am
    23    31    33    2
    24     4    22    1
    25    22    23    1
    26    23    24    1
    27    23    25    1
    28    23    26    1
    29    26    27    1
    30    27    28    2
    31     6     2   ar
    32    21    16   ar
    33    27     3    1
    34    18     5    1
    35    10    29    1
    36    15    30    1
    37    32    34    1
    38    32    35    1
@<TRIPOS>MOLECULE
*****
 35 38 0 0 0
SMALL
GASTEIGER

@<TRIPOS>ATOM
      1 C         143.1084  143.6175  160.2574 C.3     1  UNL1        0.0323
      2 C         142.0654  142.8044  160.9652 C.ar    1  UNL1       -0.0060
      3 C         140.8823  142.1394  160.3266 C.ar    1  UNL1        0.0438
      4 C         140.1081  141.4376  161.4027 C.ar    1  UNL1        0.0435
      5 N         140.8128  141.6688  162.7065 N.ar    1  UNL1       -0.3137
      6 C         142.0224  142.5135  162.4362 C.ar    1  UNL1        0.0372
      7 C         143.2440  143.2295  162.9314 C.3     1  UNL1        0.0456
      8 C         144.1501  143.6247  164.0596 C.3     1  UNL1        0.0275
      9 C         144.4980  143.5934  165.5183 C.3     1  UNL1        0.0898
     10 N         144.1945  143.1440  166.9168 N.am    1  UNL1       -0.3030
     11 C         143.3208  142.3967  167.8804 C.2     1  UNL1        0.2403
     12 O         143.9699  142.5851  169.2194 O.2     1  UNL1       -0.2733
     13 C         142.1111  141.5520  168.1507 C.3     1  UNL1        0.1466
     14 C         142.1340  141.3031  169.6297 C.3     1  UNL1        0.0311
     15 N         140.8896  140.8361  167.6555 N.pl3   1  UNL1       -0.3268
     16 C         139.9834  140.4408  166.5273 C.ar    1  UNL1        0.0507
     17 C         140.5928  141.0603  165.3047 C.ar    1  UNL1        0.0319
     18 C         139.9437  140.8719  163.9656 C.ar    1  UNL1        0.0646
     19 C         138.6852  140.0640  163.8492 C.ar    1  UNL1        0.0177
     20 C         138.0758  139.4446  165.0718 C.ar    1  UNL1        0.0072
     21 C         138.7249  139.6330  166.4109 C.ar    1  UNL1        0.0663
     22 C         138.8615  140.6786  161.0563 C.3     1  UNL1        0.0446
     23 C         138.3891  140.6214  159.6339 C.3     1  UNL1        0.0128
     24 C         137.5461  140.2792  158.4412 C.3     1  UNL1        0.0008
     25 C         137.3222  139.8008  160.2958 C.3     1  UNL1        0.0008
     26 C         139.1632  141.3232  158.5577 C.3     1  UNL1        0.0695
     27 C         140.4098  142.0822  158.9040 C.2     1  UNL1        0.1739
     28 O         141.1840  142.7840  157.8279 O.2     1  UNL1       -0.2913
     29 H         144.9173  143.5215  167.4683 H       1  UNL1        0.1495
     30 H         140.4896  140.4295  168.4580 H       1  UNL1        0.1472
     31 C         138.1156  139.0135  167.6336 C.2     1  UNL1        0.2439
     32 N         137.1463  137.8771  167.4949 N.am    1  UNL1       -0.3253
     33 O         138.4754  139.5304  168.9949 O.2     1  UNL1       -0.2703
     34 H         136.9101  137.5379  166.6014 H       1  UNL1        0.1453
     35 H         136.7464  137.4705  168.2974 H       1  UNL1        0.1453
@<TRIPOS>BOND
     1     1     2    1
     2     2     3   ar
     3     3     4   ar
     4     4     5   ar
     5     5     6   ar
     6     6     7    1
     7     7     8    1
     8     8     9    1
     9     9    10    1
    10    10    11   am
    11    11    12    2
    12    11    13    1
    13    13    14    1
    14    13    15    1
    15    15    16    1
    16    16    17   ar
    17    17    18   ar
    18    18    19   ar
    19    19    20   ar
    20    20    21   ar
    21    21    31    1
    22    31    32   am
    23    31    33    2
    24     4    22    1
    25    22    23    1
    26    23    24    1
    27    23    25    1
    28    23    26    1
    29    26    27    1
    30    27    28    2
    31     6     2   ar
    32    21    16   ar
    33    27     3    1
    34    18     5    1
    35    10    29    1
    36    15    30    1
    37    32    34    1
    38    32    35    1
@<TRIPOS>MOLECULE
*****
 35 38 0 0 0
SMALL
GASTEIGER

@<TRIPOS>ATOM
      1 C         143.6657  142.6026  168.7450 C.3     1  UNL1        0.0323
      2 C         142.5765  141.9461  167.9497 C.ar    1  UNL1       -0.0060
      3 C         141.3586  141.2732  168.5101 C.ar    1  UNL1        0.0438
      4 C         140.5433  140.7585  167.3611 C.ar    1  UNL1        0.0435
      5 N         141.2573  141.1133  166.0905 N.ar    1  UNL1       -0.3137
      6 C         142.5137  141.8473  166.4542 C.ar    1  UNL1        0.0372
      7 C         143.7732  142.5502  166.0422 C.3     1  UNL1        0.0456
      8 C         144.6980  143.0338  164.9647 C.3     1  UNL1        0.0275
      9 C         145.0404  143.1683  163.5106 C.3     1  UNL1        0.0898
     10 N         144.7086  142.9179  162.0694 N.am    1  UNL1       -0.3030
     11 C         143.7916  142.3496  161.0272 C.2     1  UNL1        0.2403
     12 O         144.4475  142.6695  159.7167 O.2     1  UNL1       -0.2733
     13 C         142.5350  141.6156  160.6634 C.3     1  UNL1        0.1466
     14 C         142.5405  141.5556  159.1646 C.3     1  UNL1        0.0311
     15 N         141.2757  140.9127  161.0754 N.pl3   1  UNL1       -0.3268
     16 C         140.3508  140.4291  162.1529 C.ar    1  UNL1        0.0507
     17 C         140.9972  140.8530  163.4384 C.ar    1  UNL1        0.0319
     18 C         140.3413  140.5330  164.7488 C.ar    1  UNL1        0.0646
     19 C         139.0389  139.7892  164.7738 C.ar    1  UNL1        0.0177
     20 C         138.3925  139.3654  163.4884 C.ar    1  UNL1        0.0072
     21 C         139.0485  139.6853  162.1779 C.ar    1  UNL1        0.0663
     22 C         139.2561  140.0333  167.6203 C.3     1  UNL1        0.0446
     23 C         138.7842  139.8227  169.0284 C.3     1  UNL1        0.0128
     24 C         137.9256  139.3799  170.1759 C.3     1  UNL1        0.0008
     25 C         137.6708  139.1543  168.2779 C.3     1  UNL1        0.0008
     26 C         139.5996  140.3374  170.1774 C.3     1  UNL1        0.0695
     27 C         140.8867  141.0626  169.9183 C.2     1  UNL1        0.1739
     28 O         141.7021  141.5773  171.0674 O.2     1  UNL1       -0.2913
     29 H         145.4507  143.3210  161.5633 H       1  UNL1        0.1495
     30 H         140.8514  140.6345  160.2317 H       1  UNL1        0.1472
     31 C         138.4021  139.2615  160.8923 C.2     1  UNL1        0.2439
     32 N         136.9205  139.4121  160.7125 N.am    1  UNL1       -0.3253
     33 O         139.2372  138.6871  159.7867 O.2     1  UNL1       -0.2703
     34 H         136.3724  139.7892  161.4383 H       1  UNL1        0.1453
     35 H         136.4962  139.1340  159.8688 H       1  UNL1        0.1453
@<TRIPOS>BOND
     1     1     2    1
     2     2     3   ar
     3     3     4   ar
     4     4     5   ar
     5     5     6   ar
     6     6     7    1
     7     7     8    1
     8     8     9    1
     9     9    10    1
    10    10    11   am
    11    11    12    2
    12    11    13    1
    13    13    14    1
    14    13    15    1
    15    15    16    1
    16    16    17   ar
    17    17    18   ar
    18    18    19   ar
    19    19    20   ar
    20    20    21   ar
    21    21    31    1
    22    31    32   am
    23    31    33    2
    24     4    22    1
    25    22    23    1
    26    23    24    1
    27    23    25    1
    28    23    26    1
    29    26    27    1
    30    27    28    2
    31     6     2   ar
    32    21    16   ar
    33    27     3    1
    34    18     5    1
    35    10    29    1
    36    15    30    1
    37    32    34    1
    38    32    35    1
@<TRIPOS>MOLECULE
*****
 35 38 0 0 0
SMALL
GASTEIGER

@<TRIPOS>ATOM
      1 C         140.0509  143.8908  169.1520 C.3     1  UNL1        0.0323
      2 C         140.6226  142.7432  168.3734 C.ar    1  UNL1       -0.0060
      3 C         141.3493  141.5632  168.9474 C.ar    1  UNL1        0.0438
      4 C         141.7437  140.6649  167.8127 C.ar    1  UNL1        0.0435
      5 N         141.2607  141.2897  166.5374 N.ar    1  UNL1       -0.3137
      6 C         140.5679  142.5741  166.8839 C.ar    1  UNL1        0.0372
      7 C         139.8265  143.8062  166.4572 C.3     1  UNL1        0.0456
      8 C         139.2352  144.6560  165.3716 C.3     1  UNL1        0.0275
      9 C         138.9525  144.8955  163.9182 C.3     1  UNL1        0.0898
     10 N         139.0541  144.4608  162.4862 N.am    1  UNL1       -0.3030
     11 C         139.5129  143.4682  161.4593 C.2     1  UNL1        0.2403
     12 O         139.0605  144.0320  160.1450 O.2     1  UNL1       -0.2733
     13 C         140.2058  142.1837  161.1129 C.3     1  UNL1        0.1466
     14 C         140.1121  142.0827  159.6192 C.3     1  UNL1        0.0311
     15 N         140.9472  140.9516  161.5396 N.pl3   1  UNL1       -0.3268
     16 C         141.5385  140.1019  162.6252 C.ar    1  UNL1        0.0507
     17 C         141.2484  140.8407  163.8979 C.ar    1  UNL1        0.0319
     18 C         141.7008  140.2769  165.2122 C.ar    1  UNL1        0.0646
     19 C         142.4432  138.9742  165.2537 C.ar    1  UNL1        0.0177
     20 C         142.7333  138.2353  163.9810 C.ar    1  UNL1        0.0072
     21 C         142.2809  138.7992  162.6667 C.ar    1  UNL1        0.0663
     22 C         142.4917  139.3941  168.0875 C.3     1  UNL1        0.0446
     23 C         142.8453  139.0215  169.4967 C.3     1  UNL1        0.0128
     24 C         143.4031  138.2431  170.6513 C.3     1  UNL1        0.0008
     25 C         143.4334  137.8529  168.7631 C.3     1  UNL1        0.0008
     26 C         142.4509  139.9199  170.6314 C.3     1  UNL1        0.0695
     27 C         141.7029  141.1907  170.3567 C.2     1  UNL1        0.1739
     28 O         141.3085  142.0890  171.4914 O.2     1  UNL1       -0.2913
     29 H         138.6014  145.1681  161.9724 H       1  UNL1        0.1495
     30 H         141.1376  140.4667  160.7042 H       1  UNL1        0.1472
     31 C         142.5710  138.0603  161.3939 C.2     1  UNL1        0.2439
     32 N         143.8534  137.2965  161.2457 N.am    1  UNL1       -0.3253
     33 O         141.5787  138.0853  160.2693 O.2     1  UNL1       -0.2703
     34 H         144.5047  137.2801  161.9837 H       1  UNL1        0.1453
     35 H         144.0438  136.8116  160.4103 H       1  UNL1        0.1453
@<TRIPOS>BOND
     1     1     2    1
     2     2     3   ar
     3     3     4   ar
     4     4     5   ar
     5     5     6   ar
     6     6     7    1
     7     7     8    1
     8     8     9    1
     9     9    10    1
    10    10    11   am
    11    11    12    2
    12    11    13    1
    13    13    14    1
    14    13    15    1
    15    15    16    1
    16    16    17   ar
    17    17    18   ar
    18    18    19   ar
    19    19    20   ar
    20    20    21   ar
    21    21    31    1
    22    31    32   am
    23    31    33    2
    24     4    22    1
    25    22    23    1
    26    23    24    1
    27    23    25    1
    28    23    26    1
    29    26    27    1
    30    27    28    2
    31     6     2   ar
    32    21    16   ar
    33    27     3    1
    34    18     5    1
    35    10    29    1
    36    15    30    1
    37    32    34    1
    38    32    35    1
@<TRIPOS>MOLECULE
*****
 35 38 0 0 0
SMALL
GASTEIGER

@<TRIPOS>ATOM
      1 C         143.2363  140.2784  165.4319 C.3     1  UNL1        0.0323
      2 C         142.1767  140.7897  164.5015 C.ar    1  UNL1       -0.0060
      3 C         141.1746  141.8621  164.8106 C.ar    1  UNL1        0.0438
      4 C         140.3117  142.0535  163.5986 C.ar    1  UNL1        0.0435
      5 N         140.7805  141.0992  162.5405 N.ar    1  UNL1       -0.3137
      6 C         141.9331  140.3182  163.0984 C.ar    1  UNL1        0.0372
      7 C         142.9906  139.2670  162.9347 C.3     1  UNL1        0.0456
      8 C         143.6695  138.2273  162.0931 C.3     1  UNL1        0.0275
      9 C         143.7879  137.4779  160.7993 C.3     1  UNL1        0.0898
     10 N         143.3142  137.2193  159.3998 N.am    1  UNL1       -0.3030
     11 C         142.3752  137.5209  158.2696 C.2     1  UNL1        0.2403
     12 O         142.7879  136.5948  157.1642 O.2     1  UNL1       -0.2733
     13 C         141.2225  138.3020  157.7116 C.3     1  UNL1        0.1466
     14 C         141.0386  137.7802  156.3174 C.3     1  UNL1        0.0311
     15 N         140.1651  139.3531  157.8753 N.pl3   1  UNL1       -0.3268
     16 C         139.4862  140.3928  158.7169 C.ar    1  UNL1        0.0507
     17 C         140.2175  140.3705  160.0263 C.ar    1  UNL1        0.0319
     18 C         139.8048  141.2967  161.1317 C.ar    1  UNL1        0.0646
     19 C         138.6607  142.2451  160.9276 C.ar    1  UNL1        0.0177
     20 C         137.9294  142.2674  159.6182 C.ar    1  UNL1        0.0072
     21 C         138.3422  141.3413  158.5128 C.ar    1  UNL1        0.0663
     22 C         139.2105  143.0719  163.6152 C.3     1  UNL1        0.0446
     23 C         138.9722  143.8990  164.8436 C.3     1  UNL1        0.0128
     24 C         138.3604  144.9151  165.7620 C.3     1  UNL1        0.0008
     25 C         137.8969  144.4432  163.9507 C.3     1  UNL1        0.0008
     26 C         139.8351  143.7076  166.0556 C.3     1  UNL1        0.0695
     27 C         140.9362  142.6892  166.0391 C.2     1  UNL1        0.1739
     28 O         141.7991  142.4979  167.2510 O.2     1  UNL1       -0.2913
     29 H         143.9041  136.5089  159.0582 H       1  UNL1        0.1495
     30 H         139.6852  139.3678  157.0159 H       1  UNL1        0.1472
     31 C         137.6109  141.3636  157.2033 C.2     1  UNL1        0.2439
     32 N         136.9177  142.6151  156.7526 N.am    1  UNL1       -0.3253
     33 O         137.5728  140.1343  156.3446 O.2     1  UNL1       -0.2703
     34 H         136.9428  143.4219  157.3162 H       1  UNL1        0.1453
     35 H         136.4378  142.6298  155.8931 H       1  UNL1        0.1453
@<TRIPOS>BOND
     1     1     2    1
     2     2     3   ar
     3     3     4   ar
     4     4     5   ar
     5     5     6   ar
     6     6     7    1
     7     7     8    1
     8     8     9    1
     9     9    10    1
    10    10    11   am
    11    11    12    2
    12    11    13    1
    13    13    14    1
    14    13    15    1
    15    15    16    1
    16    16    17   ar
    17    17    18   ar
    18    18    19   ar
    19    19    20   ar
    20    20    21   ar
    21    21    31    1
    22    31    32   am
    23    31    33    2
    24     4    22    1
    25    22    23    1
    26    23    24    1
    27    23    25    1
    28    23    26    1
    29    26    27    1
    30    27    28    2
    31     6     2   ar
    32    21    16   ar
    33    27     3    1
    34    18     5    1
    35    10    29    1
    36    15    30    1
    37    32    34    1
    38    32    35    1
@<TRIPOS>MOLECULE
*****
 35 38 0 0 0
SMALL
GASTEIGER

@<TRIPOS>ATOM
      1 C         139.1103  144.8582  166.5139 C.3     1  UNL1        0.0323
      2 C         139.9133  143.6651  166.0876 C.ar    1  UNL1       -0.0060
      3 C         140.5390  142.6518  166.9997 C.ar    1  UNL1        0.0438
      4 C         141.2440  141.6363  166.1502 C.ar    1  UNL1        0.0435
      5 N         141.0540  142.0220  164.7131 N.ar    1  UNL1       -0.3137
      6 C         140.2317  143.2757  164.6744 C.ar    1  UNL1        0.0372
      7 C         139.5532  144.3607  163.8917 C.3     1  UNL1        0.0456
      8 C         139.2004  144.9859  162.5746 C.3     1  UNL1        0.0275
      9 C         139.2679  144.9840  161.0762 C.3     1  UNL1        0.0898
     10 N         139.7376  144.3554  159.7978 N.am    1  UNL1       -0.3030
     11 C         140.4836  143.2685  159.0820 C.2     1  UNL1        0.2403
     12 O         140.3359  143.5912  157.6246 O.2     1  UNL1       -0.2733
     13 C         141.3060  142.0147  159.1207 C.3     1  UNL1        0.1466
     14 C         141.5840  141.6883  157.6833 C.3     1  UNL1        0.0311
     15 N         141.9844  140.9298  159.9034 N.pl3   1  UNL1       -0.3268
     16 C         142.3372  140.3046  161.2205 C.ar    1  UNL1        0.0507
     17 C         141.7079  141.1925  162.2527 C.ar    1  UNL1        0.0319
     18 C         141.8556  140.8699  163.7101 C.ar    1  UNL1        0.0646
     19 C         142.6325  139.6592  164.1353 C.ar    1  UNL1        0.0177
     20 C         143.2618  138.7713  163.1031 C.ar    1  UNL1        0.0072
     21 C         143.1141  139.0939  161.6457 C.ar    1  UNL1        0.0663
     22 C         141.9678  140.4917  166.7950 C.3     1  UNL1        0.0446
     23 C         141.9867  140.3625  168.2893 C.3     1  UNL1        0.0128
     24 C         142.2866  139.8146  169.6531 C.3     1  UNL1        0.0008
     25 C         142.7958  139.1567  167.9135 C.3     1  UNL1        0.0008
     26 C         141.2817  141.3780  169.1388 C.3     1  UNL1        0.0695
     27 C         140.5578  142.5227  168.4940 C.2     1  UNL1        0.1739
     28 O         139.8528  143.5382  169.3435 O.2     1  UNL1       -0.2913
     29 H         139.3872  144.9364  159.0844 H       1  UNL1        0.1495
     30 H         142.3974  140.3470  159.2259 H       1  UNL1        0.1472
     31 C         143.7434  138.2059  160.6134 C.2     1  UNL1        0.2439
     32 N         144.6696  137.1043  161.0358 N.am    1  UNL1       -0.3253
     33 O         143.4464  138.4196  159.1587 O.2     1  UNL1       -0.2703
     34 H         144.8646  136.9641  161.9906 H       1  UNL1        0.1453
     35 H         145.0826  136.5215  160.3583 H       1  UNL1        0.1453
@<TRIPOS>BOND
     1     1     2    1
     2     2     3   ar
     3     3     4   ar
     4     4     5   ar
     5     5     6   ar
     6     6     7    1
     7     7     8    1
     8     8     9    1
     9     9    10    1
    10    10    11   am
    11    11    12    2
    12    11    13    1
    13    13    14    1
    14    13    15    1
    15    15    16    1
    16    16    17   ar
    17    17    18   ar
    18    18    19   ar
    19    19    20   ar
    20    20    21   ar
    21    21    31    1
    22    31    32   am
    23    31    33    2
    24     4    22    1
    25    22    23    1
    26    23    24    1
    27    23    25    1
    28    23    26    1
    29    26    27    1
    30    27    28    2
    31     6     2   ar
    32    21    16   ar
    33    27     3    1
    34    18     5    1
    35    10    29    1
    36    15    30    1
    37    32    34    1
    38    32    35    1
@<TRIPOS>MOLECULE
*****
 35 38 0 0 0
SMALL
GASTEIGER

@<TRIPOS>ATOM
      1 C         139.6127  143.9300  166.3381 C.3     1  UNL1        0.0323
      2 C         140.4656  143.0736  165.4499 C.ar    1  UNL1       -0.0060
      3 C         141.2291  141.8530  165.8708 C.ar    1  UNL1        0.0438
      4 C         141.9402  141.3125  164.6658 C.ar    1  UNL1        0.0435
      5 N         141.6162  142.1991  163.5000 N.ar    1  UNL1       -0.3137
      6 C         140.7049  143.2874  163.9845 C.ar    1  UNL1        0.0372
      7 C         139.8934  144.5193  163.7126 C.3     1  UNL1        0.0456
      8 C         139.3992  145.5646  162.7569 C.3     1  UNL1        0.0275
      9 C         139.3546  146.1430  161.3738 C.3     1  UNL1        0.0898
     10 N         139.7717  146.0999  159.9336 N.am    1  UNL1       -0.3030
     11 C         140.5387  145.4465  158.8223 C.2     1  UNL1        0.2403
     12 O         140.2598  146.2870  157.6116 O.2     1  UNL1       -0.2733
     13 C         141.4501  144.3581  158.3377 C.3     1  UNL1        0.1466
     14 C         141.6429  144.6352  156.8762 C.3     1  UNL1        0.0311
     15 N         142.2615  143.1263  158.6097 N.pl3   1  UNL1       -0.3268
     16 C         142.7558  142.0810  159.5654 C.ar    1  UNL1        0.0507
     17 C         142.1429  142.4416  160.8861 C.ar    1  UNL1        0.0319
     18 C         142.4218  141.6011  162.0967 C.ar    1  UNL1        0.0646
     19 C         143.3136  140.4000  161.9867 C.ar    1  UNL1        0.0177
     20 C         143.9265  140.0394  160.6660 C.ar    1  UNL1        0.0072
     21 C         143.6476  140.8799  159.4553 C.ar    1  UNL1        0.0663
     22 C         142.7909  140.0829  164.7858 C.3     1  UNL1        0.0446
     23 C         142.9304  139.3937  166.1107 C.3     1  UNL1        0.0128
     24 C         143.3700  138.3966  167.1416 C.3     1  UNL1        0.0008
     25 C         143.7942  138.5070  165.2637 C.3     1  UNL1        0.0008
     26 C         142.2193  139.9343  167.3158 C.3     1  UNL1        0.0695
     27 C         141.3687  141.1639  167.1959 C.2     1  UNL1        0.1739
     28 O         140.6576  141.7044  168.4009 O.2     1  UNL1       -0.2913
     29 H         139.3281  146.8735  159.5165 H       1  UNL1        0.1495
     30 H         142.6638  142.8896  157.7429 H       1  UNL1        0.1472
     31 C         144.2605  140.5194  158.1345 C.2     1  UNL1        0.2439
     32 N         143.8249  139.2743  157.4205 N.am    1  UNL1       -0.3253
     33 O         145.3090  141.4040  157.5279 O.2     1  UNL1       -0.2703
     34 H         143.1367  138.6937  157.8187 H       1  UNL1        0.1453
     35 H         144.2271  139.0376  156.5537 H       1  UNL1        0.1453
@<TRIPOS>BOND
     1     1     2    1
     2     2     3   ar
     3     3     4   ar
     4     4     5   ar
     5     5     6   ar
     6     6     7    1
     7     7     8    1
     8     8     9    1
     9     9    10    1
    10    10    11   am
    11    11    12    2
    12    11    13    1
    13    13    14    1
    14    13    15    1
    15    15    16    1
    16    16    17   ar
    17    17    18   ar
    18    18    19   ar
    19    19    20   ar
    20    20    21   ar
    21    21    31    1
    22    31    32   am
    23    31    33    2
    24     4    22    1
    25    22    23    1
    26    23    24    1
    27    23    25    1
    28    23    26    1
    29    26    27    1
    30    27    28    2
    31     6     2   ar
    32    21    16   ar
    33    27     3    1
    34    18     5    1
    35    10    29    1
    36    15    30    1
    37    32    34    1
    38    32    35    1
