@<TRIPOS>MOLECULE
*****
 40 44 0 0 0
SMALL
GASTEIGER

@<TRIPOS>ATOM
      1 N         139.9334  141.4495  163.3079 N.3     1  UNL1       -0.2671
      2 C         141.1938  141.1641  162.5466 C.3     1  UNL1        0.0899
      3 C         141.5052  141.9321  161.2963 C.3     1  UNL1        0.0896
      4 N         140.5560  142.9857  160.8073 N.3     1  UNL1       -0.2728
      5 C         139.2955  143.2711  161.5686 C.3     1  UNL1        0.0882
      6 C         138.9842  142.5031  162.8189 C.3     1  UNL1        0.0739
      7 C         137.7236  142.7886  163.5802 C.3     1  UNL1        0.0188
      8 C         138.9519  139.3412  164.6258 C.3     1  UNL1        0.1382
      9 C         138.8419  138.9503  166.0698 C.3     1  UNL1        0.0573
     10 C         139.4441  140.0489  166.8946 C.ar    1  UNL1       -0.0224
     11 C         139.6158  140.2133  168.3756 C.ar    1  UNL1       -0.0006
     12 C         140.2695  141.4476  168.9224 C.ar    1  UNL1        0.0711
     13 C         140.7517  142.5175  167.9882 C.ar    1  UNL1        0.0036
     14 C         140.5801  142.3532  166.5072 C.ar    1  UNL1       -0.0033
     15 C         139.9263  141.1189  165.9604 C.ar    1  UNL1       -0.0093
     16 C         139.6221  140.6815  164.5582 C.3     1  UNL1        0.1077
     17 C         140.4412  141.6120  170.4035 C.3     1  UNL1        0.4186
     18 F         140.6129  141.7764  171.8846 F       1  UNL1       -0.1659
     19 F         141.6545  140.7311  170.3607 F       1  UNL1       -0.1659
     20 F         139.2279  142.4929  170.4464 F       1  UNL1       -0.1659
     21 O         138.4753  138.5337  163.4550 O.3     1  UNL1       -0.3542
     22 C         140.7389  137.2622  163.3566 C.3     1  UNL1        0.0346
     23 C         139.4288  137.6331  162.7271 C.3     1  UNL1        0.1422
     24 C         140.8673  143.7537  159.5571 C.3     1  UNL1        0.0488
     25 C         142.1344  143.9836  160.3263 C.3     1  UNL1        0.0161
     26 C         139.4922  143.2571  159.2221 C.3     1  UNL1        0.0362
     27 C         138.8683  143.6082  157.9040 C.3     1  UNL1        0.0951
     28 N         139.6196  144.4561  156.9208 N.am    1  UNL1       -0.2759
     29 C         138.9958  144.8074  155.6027 C.2     1  UNL1        0.2513
     30 O         137.6206  144.3107  155.2676 O.2     1  UNL1       -0.2698
     31 C         140.9948  144.9528  157.2558 C.3     1  UNL1        0.0951
     32 C         141.6186  144.6016  158.5739 C.3     1  UNL1        0.0362
     33 C         139.7471  145.6553  154.6195 C.ar    1  UNL1        0.0807
     34 C         140.5712  145.0076  153.5465 C.ar    1  UNL1        0.0666
     35 C         140.6440  143.5120  153.4567 C.3     1  UNL1        0.0523
     36 N         141.3226  145.8554  152.5633 N.ar    1  UNL1       -0.2282
     37 C         141.2498  147.3510  152.6531 C.ar    1  UNL1        0.1982
     38 N         140.4257  147.9986  153.7261 N.ar    1  UNL1       -0.2282
     39 C         139.6744  147.1508  154.7093 C.ar    1  UNL1        0.0666
     40 C         138.8503  147.7985  155.7823 C.3     1  UNL1        0.0523
@<TRIPOS>BOND
     1    22    23    1
     2    23    21    1
     3     8    21    1
     4     8     9    1
     5     9    10    1
     6    10    11   ar
     7    11    12   ar
     8    12    17    1
     9    17    18    1
    10    17    19    1
    11    17    20    1
    12    12    13   ar
    13    13    14   ar
    14    14    15   ar
    15    15    16    1
    16    16     1    1
    17     1     2    1
    18     2     3    1
    19     3     4    1
    20     4    24    1
    21    24    25    1
    22    24    26    1
    23    26    27    1
    24    27    28    1
    25    28    29   am
    26    29    30    2
    27    29    33    1
    28    33    34   ar
    29    34    35    1
    30    34    36   ar
    31    36    37   ar
    32    37    38   ar
    33    38    39   ar
    34    39    40    1
    35    28    31    1
    36    31    32    1
    37     4     5    1
    38     5     6    1
    39     6     7    1
    40    16     8    1
    41     6     1    1
    42    15    10   ar
    43    32    24    1
    44    39    33   ar
@<TRIPOS>MOLECULE
*****
 40 44 0 0 0
SMALL
GASTEIGER

@<TRIPOS>ATOM
      1 N         140.7795  140.9051  163.4682 N.3     1  UNL1       -0.2671
      2 C         142.2351  140.6595  163.2020 C.3     1  UNL1        0.0899
      3 C         142.8633  141.1705  161.9393 C.3     1  UNL1        0.0896
      4 N         142.0359  141.9271  160.9429 N.3     1  UNL1       -0.2728
      5 C         140.5803  142.1727  161.2091 C.3     1  UNL1        0.0882
      6 C         139.9521  141.6617  162.4717 C.3     1  UNL1        0.0739
      7 C         138.4965  141.9073  162.7379 C.3     1  UNL1        0.0188
      8 C         139.2331  139.2133  164.8436 C.3     1  UNL1        0.1382
      9 C         138.8454  139.0637  166.2848 C.3     1  UNL1        0.0573
     10 C         139.5240  140.1518  167.0629 C.ar    1  UNL1       -0.0224
     11 C         139.5113  140.5002  168.5218 C.ar    1  UNL1       -0.0006
     12 C         140.3057  141.6708  169.0202 C.ar    1  UNL1        0.0711
     13 C         141.1129  142.4930  168.0598 C.ar    1  UNL1        0.0036
     14 C         141.1256  142.1447  166.6009 C.ar    1  UNL1       -0.0033
     15 C         140.3312  140.9741  166.1024 C.ar    1  UNL1       -0.0093
     16 C         140.1513  140.3940  164.7309 C.3     1  UNL1        0.1077
     17 C         140.2930  142.0192  170.4792 C.3     1  UNL1        0.4186
     18 F         140.2803  142.3677  171.9381 F       1  UNL1       -0.1659
     19 F         140.1117  143.4671  170.1318 F       1  UNL1       -0.1659
     20 F         140.4744  140.5713  170.8266 F       1  UNL1       -0.1659
     21 O         138.7817  138.3363  163.7134 O.3     1  UNL1       -0.3542
     22 C         141.0375  137.0511  163.6138 C.3     1  UNL1        0.0346
     23 C         139.7851  137.5311  162.9421 C.3     1  UNL1        0.1422
     24 C         142.6641  142.4381  159.6802 C.3     1  UNL1        0.0488
     25 C         142.0782  143.7118  160.2137 C.3     1  UNL1        0.0161
     26 C         143.0317  140.9870  159.5853 C.3     1  UNL1        0.0362
     27 C         143.8241  140.4891  158.4131 C.3     1  UNL1        0.0951
     28 N         144.2488  141.4424  157.3357 N.am    1  UNL1       -0.2759
     29 C         145.0412  140.9447  156.1634 C.2     1  UNL1        0.2513
     30 O         145.4089  139.4935  156.0684 O.2     1  UNL1       -0.2698
     31 C         143.8812  142.8936  157.4306 C.3     1  UNL1        0.0951
     32 C         143.0888  143.3914  158.6028 C.3     1  UNL1        0.0362
     33 C         145.4660  141.8980  155.0860 C.ar    1  UNL1        0.0807
     34 C         144.6039  142.0923  153.8739 C.ar    1  UNL1        0.0666
     35 C         143.3171  141.3333  153.7393 C.3     1  UNL1        0.0523
     36 N         145.0286  143.0455  152.7964 N.ar    1  UNL1       -0.2282
     37 C         146.3155  143.8045  152.9311 C.ar    1  UNL1        0.1982
     38 N         147.1775  143.6102  154.1431 N.ar    1  UNL1       -0.2282
     39 C         146.7528  142.6570  155.2206 C.ar    1  UNL1        0.0666
     40 C         147.6148  142.4626  156.4326 C.3     1  UNL1        0.0523
@<TRIPOS>BOND
     1    22    23    1
     2    23    21    1
     3     8    21    1
     4     8     9    1
     5     9    10    1
     6    10    11   ar
     7    11    12   ar
     8    12    17    1
     9    17    18    1
    10    17    19    1
    11    17    20    1
    12    12    13   ar
    13    13    14   ar
    14    14    15   ar
    15    15    16    1
    16    16     1    1
    17     1     2    1
    18     2     3    1
    19     3     4    1
    20     4    24    1
    21    24    25    1
    22    24    26    1
    23    26    27    1
    24    27    28    1
    25    28    29   am
    26    29    30    2
    27    29    33    1
    28    33    34   ar
    29    34    35    1
    30    34    36   ar
    31    36    37   ar
    32    37    38   ar
    33    38    39   ar
    34    39    40    1
    35    28    31    1
    36    31    32    1
    37     4     5    1
    38     5     6    1
    39     6     7    1
    40    16     8    1
    41     6     1    1
    42    15    10   ar
    43    32    24    1
    44    39    33   ar
@<TRIPOS>MOLECULE
*****
 40 44 0 0 0
SMALL
GASTEIGER

@<TRIPOS>ATOM
      1 N         140.5336  144.4107  158.5233 N.3     1  UNL1       -0.2671
      2 C         141.2894  145.0443  159.6533 C.3     1  UNL1        0.0899
      3 C         140.9729  144.6695  161.0708 C.3     1  UNL1        0.0896
      4 N         139.9004  143.6610  161.3583 N.3     1  UNL1       -0.2728
      5 C         139.1444  143.0273  160.2283 C.3     1  UNL1        0.0882
      6 C         139.4610  143.4021  158.8108 C.3     1  UNL1        0.0739
      7 C         138.7051  142.7685  157.6807 C.3     1  UNL1        0.0188
      8 C         141.7048  143.9999  156.1559 C.3     1  UNL1        0.1382
      9 C         141.7505  144.7406  154.8524 C.3     1  UNL1        0.0573
     10 C         140.9240  145.9841  154.9967 C.ar    1  UNL1       -0.0224
     11 C         140.6062  147.0946  154.0398 C.ar    1  UNL1       -0.0006
     12 C         139.7320  148.2329  154.4756 C.ar    1  UNL1        0.0711
     13 C         139.1756  148.2607  155.8683 C.ar    1  UNL1        0.0036
     14 C         139.4933  147.1501  156.8252 C.ar    1  UNL1       -0.0033
     15 C         140.3676  146.0118  156.3893 C.ar    1  UNL1       -0.0093
     16 C         140.8501  144.7855  157.1058 C.3     1  UNL1        0.1077
     17 C         139.4142  149.3436  153.5187 C.3     1  UNL1        0.4186
     18 F         139.0964  150.4542  152.5619 F       1  UNL1       -0.1659
     19 F         138.7685  150.1164  154.6303 F       1  UNL1       -0.1659
     20 F         140.0600  148.5707  152.4071 F       1  UNL1       -0.1659
     21 O         142.3931  142.7015  156.4568 O.3     1  UNL1       -0.3542
     22 C         143.5908  142.3733  158.7388 C.3     1  UNL1        0.0346
     23 C         143.6508  142.6910  157.2741 C.3     1  UNL1        0.1422
     24 C         139.5838  143.2861  162.7758 C.3     1  UNL1        0.0488
     25 C         138.6634  144.4581  162.6045 C.3     1  UNL1        0.0161
     26 C         140.6141  142.2443  162.4548 C.3     1  UNL1        0.0362
     27 C         141.0083  141.2347  163.4917 C.3     1  UNL1        0.0951
     28 N         140.3721  141.2668  164.8497 N.am    1  UNL1       -0.2759
     29 C         140.7662  140.2573  165.8867 C.2     1  UNL1        0.2513
     30 O         141.7966  139.2154  165.5657 O.2     1  UNL1       -0.2698
     31 C         139.3418  142.3087  165.1707 C.3     1  UNL1        0.0951
     32 C         138.9476  143.3183  164.1339 C.3     1  UNL1        0.0362
     33 C         140.1300  140.2894  167.2447 C.ar    1  UNL1        0.0807
     34 C         138.8953  139.4813  167.5138 C.ar    1  UNL1        0.0666
     35 C         138.2968  138.6411  166.4248 C.3     1  UNL1        0.0523
     36 N         138.2591  139.5134  168.8718 N.ar    1  UNL1       -0.2282
     37 C         138.8576  140.3536  169.9608 C.ar    1  UNL1        0.1982
     38 N         140.0923  141.1617  169.6917 N.ar    1  UNL1       -0.2282
     39 C         140.7286  141.1297  168.3337 C.ar    1  UNL1        0.0666
     40 C         141.9633  141.9377  168.0646 C.3     1  UNL1        0.0523
@<TRIPOS>BOND
     1    22    23    1
     2    23    21    1
     3     8    21    1
     4     8     9    1
     5     9    10    1
     6    10    11   ar
     7    11    12   ar
     8    12    17    1
     9    17    18    1
    10    17    19    1
    11    17    20    1
    12    12    13   ar
    13    13    14   ar
    14    14    15   ar
    15    15    16    1
    16    16     1    1
    17     1     2    1
    18     2     3    1
    19     3     4    1
    20     4    24    1
    21    24    25    1
    22    24    26    1
    23    26    27    1
    24    27    28    1
    25    28    29   am
    26    29    30    2
    27    29    33    1
    28    33    34   ar
    29    34    35    1
    30    34    36   ar
    31    36    37   ar
    32    37    38   ar
    33    38    39   ar
    34    39    40    1
    35    28    31    1
    36    31    32    1
    37     4     5    1
    38     5     6    1
    39     6     7    1
    40    16     8    1
    41     6     1    1
    42    15    10   ar
    43    32    24    1
    44    39    33   ar
@<TRIPOS>MOLECULE
*****
 40 44 0 0 0
SMALL
GASTEIGER

@<TRIPOS>ATOM
      1 N         140.8674  140.8008  162.9445 N.3     1  UNL1       -0.2671
      2 C         141.8308  141.1610  161.8527 C.3     1  UNL1        0.0899
      3 C         141.7542  140.4664  160.5255 C.3     1  UNL1        0.0896
      4 N         140.7141  139.4114  160.2901 N.3     1  UNL1       -0.2728
      5 C         139.7507  139.0511  161.3819 C.3     1  UNL1        0.0882
      6 C         139.8273  139.7458  162.7091 C.3     1  UNL1        0.0739
      7 C         138.8639  139.3856  163.8009 C.3     1  UNL1        0.0188
      8 C         140.4818  142.8923  164.5638 C.3     1  UNL1        0.1382
      9 C         140.7484  143.1753  166.0125 C.3     1  UNL1        0.0573
     10 C         141.3755  141.9535  166.6158 C.ar    1  UNL1       -0.0224
     11 C         141.8519  141.6522  168.0058 C.ar    1  UNL1       -0.0006
     12 C         142.4493  140.3126  168.3200 C.ar    1  UNL1        0.0711
     13 C         142.5702  139.2744  167.2441 C.ar    1  UNL1        0.0036
     14 C         142.0937  139.5757  165.8541 C.ar    1  UNL1       -0.0033
     15 C         141.4963  140.9153  165.5400 C.ar    1  UNL1       -0.0093
     16 C         140.9440  141.4955  164.2718 C.3     1  UNL1        0.1077
     17 C         142.9258  140.0112  169.7100 C.3     1  UNL1        0.4186
     18 F         143.4023  139.7098  171.1000 F       1  UNL1       -0.1659
     19 F         142.1775  138.7115  169.6847 F       1  UNL1       -0.1659
     20 F         143.6741  141.3110  169.7354 F       1  UNL1       -0.1659
     21 O         139.8618  143.8397  163.5799 O.3     1  UNL1       -0.3542
     22 C         137.7016  144.3454  164.9318 C.3     1  UNL1        0.0346
     23 C         138.3854  144.1017  163.6191 C.3     1  UNL1        0.1422
     24 C         140.6375  138.7167  158.9628 C.3     1  UNL1        0.0488
     25 C         139.1816  138.7537  159.3219 C.3     1  UNL1        0.0161
     26 C         142.1200  138.9211  159.0647 C.3     1  UNL1        0.0362
     27 C         143.0204  138.4436  157.9641 C.3     1  UNL1        0.0951
     28 N         142.4382  137.7617  156.7615 N.am    1  UNL1       -0.2759
     29 C         143.3385  137.2842  155.6609 C.2     1  UNL1        0.2513
     30 O         144.8210  137.4885  155.7628 O.2     1  UNL1       -0.2698
     31 C         140.9556  137.5574  156.6597 C.3     1  UNL1        0.0951
     32 C         140.0554  138.0349  157.7602 C.3     1  UNL1        0.0362
     33 C         142.7563  136.6023  154.4583 C.ar    1  UNL1        0.0807
     34 C         142.6265  135.1082  154.4329 C.ar    1  UNL1        0.0666
     35 C         143.0789  134.2959  155.6100 C.3     1  UNL1        0.0523
     36 N         142.0443  134.4263  153.2303 N.ar    1  UNL1       -0.2282
     37 C         141.5919  135.2385  152.0532 C.ar    1  UNL1        0.1982
     38 N         141.7217  136.7327  152.0787 N.ar    1  UNL1       -0.2282
     39 C         142.3039  137.4146  153.2812 C.ar    1  UNL1        0.0666
     40 C         142.4336  138.9088  153.3067 C.3     1  UNL1        0.0523
@<TRIPOS>BOND
     1    22    23    1
     2    23    21    1
     3     8    21    1
     4     8     9    1
     5     9    10    1
     6    10    11   ar
     7    11    12   ar
     8    12    17    1
     9    17    18    1
    10    17    19    1
    11    17    20    1
    12    12    13   ar
    13    13    14   ar
    14    14    15   ar
    15    15    16    1
    16    16     1    1
    17     1     2    1
    18     2     3    1
    19     3     4    1
    20     4    24    1
    21    24    25    1
    22    24    26    1
    23    26    27    1
    24    27    28    1
    25    28    29   am
    26    29    30    2
    27    29    33    1
    28    33    34   ar
    29    34    35    1
    30    34    36   ar
    31    36    37   ar
    32    37    38   ar
    33    38    39   ar
    34    39    40    1
    35    28    31    1
    36    31    32    1
    37     4     5    1
    38     5     6    1
    39     6     7    1
    40    16     8    1
    41     6     1    1
    42    15    10   ar
    43    32    24    1
    44    39    33   ar
@<TRIPOS>MOLECULE
*****
 40 44 0 0 0
SMALL
GASTEIGER

@<TRIPOS>ATOM
      1 N         143.5189  140.9914  159.4780 N.3     1  UNL1       -0.2671
      2 C         144.1027  140.2964  160.6721 C.3     1  UNL1        0.0899
      3 C         143.6100  140.6297  162.0491 C.3     1  UNL1        0.0896
      4 N         142.5336  141.6582  162.2320 N.3     1  UNL1       -0.2728
      5 C         141.9498  142.3533  161.0379 C.3     1  UNL1        0.0882
      6 C         142.4424  142.0200  159.6608 C.3     1  UNL1        0.0739
      7 C         141.8586  142.7151  158.4667 C.3     1  UNL1        0.0188
      8 C         143.4522  139.6002  157.1965 C.3     1  UNL1        0.1382
      9 C         144.2451  139.6125  155.9232 C.3     1  UNL1        0.0573
     10 C         145.2944  140.6778  156.0407 C.ar    1  UNL1       -0.0224
     11 C         146.3627  141.1430  155.0961 C.ar    1  UNL1       -0.0006
     12 C         147.2866  142.2544  155.4974 C.ar    1  UNL1        0.0711
     13 C         147.1423  142.9006  156.8433 C.ar    1  UNL1        0.0036
     14 C         146.0741  142.4355  157.7880 C.ar    1  UNL1       -0.0033
     15 C         145.1501  141.3241  157.3867 C.ar    1  UNL1       -0.0093
     16 C         144.0116  140.6581  158.1009 C.3     1  UNL1        0.1077
     17 C         148.3550  142.7196  154.5527 C.3     1  UNL1        0.4186
     18 F         149.4232  143.1848  153.6080 F       1  UNL1       -0.1659
     19 F         147.4529  143.8181  154.0736 F       1  UNL1       -0.1659
     20 F         149.2570  141.6211  155.0318 F       1  UNL1       -0.1659
     21 O         142.3020  138.6900  157.5102 O.3     1  UNL1       -0.3542
     22 C         142.2219  136.2884  156.5224 C.3     1  UNL1        0.0346
     23 C         142.5318  137.2153  157.6602 C.3     1  UNL1        0.1422
     24 C         142.0409  141.9916  163.6090 C.3     1  UNL1        0.0488
     25 C         141.4660  143.1443  162.8405 C.3     1  UNL1        0.0161
     26 C         142.7869  140.7230  163.8992 C.3     1  UNL1        0.0362
     27 C         142.8407  140.1881  165.2996 C.3     1  UNL1        0.0951
     28 N         142.1484  140.9218  166.4098 N.am    1  UNL1       -0.2759
     29 C         142.2021  140.3870  167.8101 C.2     1  UNL1        0.2513
     30 O         142.9481  139.1184  168.1004 O.2     1  UNL1       -0.2698
     31 C         141.4023  142.1904  166.1195 C.3     1  UNL1        0.0951
     32 C         141.3486  142.7252  164.7192 C.3     1  UNL1        0.0362
     33 C         141.5098  141.1206  168.9203 C.ar    1  UNL1        0.0807
     34 C         140.0567  140.8685  169.1940 C.ar    1  UNL1        0.0666
     35 C         139.2959  139.8828  168.3576 C.3     1  UNL1        0.0523
     36 N         139.3643  141.6021  170.3042 N.ar    1  UNL1       -0.2282
     37 C         140.1251  142.5879  171.1406 C.ar    1  UNL1        0.1982
     38 N         141.5781  142.8400  170.8669 N.ar    1  UNL1       -0.2282
     39 C         142.2705  142.1064  169.7567 C.ar    1  UNL1        0.0666
     40 C         143.7236  142.3585  169.4830 C.3     1  UNL1        0.0523
@<TRIPOS>BOND
     1    22    23    1
     2    23    21    1
     3     8    21    1
     4     8     9    1
     5     9    10    1
     6    10    11   ar
     7    11    12   ar
     8    12    17    1
     9    17    18    1
    10    17    19    1
    11    17    20    1
    12    12    13   ar
    13    13    14   ar
    14    14    15   ar
    15    15    16    1
    16    16     1    1
    17     1     2    1
    18     2     3    1
    19     3     4    1
    20     4    24    1
    21    24    25    1
    22    24    26    1
    23    26    27    1
    24    27    28    1
    25    28    29   am
    26    29    30    2
    27    29    33    1
    28    33    34   ar
    29    34    35    1
    30    34    36   ar
    31    36    37   ar
    32    37    38   ar
    33    38    39   ar
    34    39    40    1
    35    28    31    1
    36    31    32    1
    37     4     5    1
    38     5     6    1
    39     6     7    1
    40    16     8    1
    41     6     1    1
    42    15    10   ar
    43    32    24    1
    44    39    33   ar
@<TRIPOS>MOLECULE
*****
 40 44 0 0 0
SMALL
GASTEIGER

@<TRIPOS>ATOM
      1 N         141.0126  140.2682  162.8451 N.3     1  UNL1       -0.2671
      2 C         141.1360  141.6537  162.2838 C.3     1  UNL1        0.0899
      3 C         140.3992  142.0238  161.0307 C.3     1  UNL1        0.0896
      4 N         139.5389  141.0083  160.3389 N.3     1  UNL1       -0.2728
      5 C         139.4154  139.6227  160.9002 C.3     1  UNL1        0.0882
      6 C         140.1523  139.2527  162.1532 C.3     1  UNL1        0.0739
      7 C         140.0288  137.8671  162.7145 C.3     1  UNL1        0.0188
      8 C         143.1479  139.3610  164.1726 C.3     1  UNL1        0.1382
      9 C         143.4799  139.1312  165.6172 C.3     1  UNL1        0.0573
     10 C         142.2865  139.5264  166.4356 C.ar    1  UNL1       -0.0224
     11 C         142.0356  139.5158  167.9144 C.ar    1  UNL1       -0.0006
     12 C         140.7151  139.9792  168.4543 C.ar    1  UNL1        0.0711
     13 C         139.6456  140.4533  167.5155 C.ar    1  UNL1        0.0036
     14 C         139.8966  140.4638  166.0367 C.ar    1  UNL1       -0.0033
     15 C         141.2170  140.0004  165.4968 C.ar    1  UNL1       -0.0093
     16 C         141.7494  139.8982  164.0981 C.3     1  UNL1        0.1077
     17 C         140.4641  139.9687  169.9332 C.3     1  UNL1        0.4186
     18 F         140.2131  139.9581  171.4120 F       1  UNL1       -0.1659
     19 F         139.2947  140.8881  169.7412 F       1  UNL1       -0.1659
     20 F         141.6336  139.0492  170.1252 F       1  UNL1       -0.1659
     21 O         144.0552  139.0996  163.0070 O.3     1  UNL1       -0.3542
     22 C         145.2097  141.4155  162.7757 C.3     1  UNL1        0.0346
     23 C         144.5222  140.2384  162.1498 C.3     1  UNL1        0.1422
     24 C         138.8021  141.3783  159.0858 C.3     1  UNL1        0.0488
     25 C         138.5562  142.6099  159.9060 C.3     1  UNL1        0.0161
     26 C         139.3039  140.0182  158.7009 C.3     1  UNL1        0.0362
     27 C         138.9835  139.4557  157.3478 C.3     1  UNL1        0.0951
     28 N         138.1613  140.2534  156.3795 N.am    1  UNL1       -0.2759
     29 C         137.8408  139.6911  155.0264 C.2     1  UNL1        0.2513
     30 O         138.3427  138.3309  154.6414 O.2     1  UNL1       -0.2698
     31 C         137.6595  141.6137  156.7645 C.3     1  UNL1        0.0951
     32 C         137.9798  142.1760  158.1176 C.3     1  UNL1        0.0362
     33 C         137.0186  140.4889  154.0581 C.ar    1  UNL1        0.0807
     34 C         135.5250  140.3510  154.0511 C.ar    1  UNL1        0.0666
     35 C         134.8536  139.4154  155.0123 C.3     1  UNL1        0.0523
     36 N         134.7027  141.1487  153.0828 N.ar    1  UNL1       -0.2282
     37 C         135.3741  142.0843  152.1215 C.ar    1  UNL1        0.1982
     38 N         136.8677  142.2221  152.1286 N.ar    1  UNL1       -0.2282
     39 C         137.6900  141.4244  153.0968 C.ar    1  UNL1        0.0666
     40 C         139.1836  141.5623  153.1039 C.3     1  UNL1        0.0523
@<TRIPOS>BOND
     1    22    23    1
     2    23    21    1
     3     8    21    1
     4     8     9    1
     5     9    10    1
     6    10    11   ar
     7    11    12   ar
     8    12    17    1
     9    17    18    1
    10    17    19    1
    11    17    20    1
    12    12    13   ar
    13    13    14   ar
    14    14    15   ar
    15    15    16    1
    16    16     1    1
    17     1     2    1
    18     2     3    1
    19     3     4    1
    20     4    24    1
    21    24    25    1
    22    24    26    1
    23    26    27    1
    24    27    28    1
    25    28    29   am
    26    29    30    2
    27    29    33    1
    28    33    34   ar
    29    34    35    1
    30    34    36   ar
    31    36    37   ar
    32    37    38   ar
    33    38    39   ar
    34    39    40    1
    35    28    31    1
    36    31    32    1
    37     4     5    1
    38     5     6    1
    39     6     7    1
    40    16     8    1
    41     6     1    1
    42    15    10   ar
    43    32    24    1
    44    39    33   ar
@<TRIPOS>MOLECULE
*****
 40 44 0 0 0
SMALL
GASTEIGER

@<TRIPOS>ATOM
      1 N         142.2942  140.8461  163.3757 N.3     1  UNL1       -0.2671
      2 C         141.1312  141.3854  162.5971 C.3     1  UNL1        0.0899
      3 C         140.7351  140.7447  161.3000 C.3     1  UNL1        0.0896
      4 N         141.5022  139.5646  160.7814 N.3     1  UNL1       -0.2728
      5 C         142.6654  139.0253  161.5599 C.3     1  UNL1        0.0882
      6 C         143.0614  139.6660  162.8571 C.3     1  UNL1        0.0739
      7 C         144.2246  139.1266  163.6357 C.3     1  UNL1        0.0188
      8 C         143.7089  142.5745  164.8442 C.3     1  UNL1        0.1382
      9 C         143.7854  142.9122  166.3037 C.3     1  UNL1        0.0573
     10 C         142.8140  142.0333  167.0344 C.ar    1  UNL1       -0.0224
     11 C         142.4583  141.9214  168.4873 C.ar    1  UNL1       -0.0006
     12 C         141.4258  140.9285  168.9322 C.ar    1  UNL1        0.0711
     13 C         140.7490  140.0475  167.9243 C.ar    1  UNL1        0.0036
     14 C         141.1047  140.1595  166.4715 C.ar    1  UNL1       -0.0033
     15 C         142.1372  141.1524  166.0265 C.ar    1  UNL1       -0.0093
     16 C         142.6903  141.4869  164.6729 C.3     1  UNL1        0.1077
     17 C         141.0701  140.8165  170.3852 C.3     1  UNL1        0.4186
     18 F         140.7143  140.7045  171.8381 F       1  UNL1       -0.1659
     19 F         141.1498  142.3083  170.5197 F       1  UNL1       -0.1659
     20 F         140.9903  139.3247  170.2507 F       1  UNL1       -0.1659
     21 O         144.5104  143.2124  163.7484 O.3     1  UNL1       -0.3542
     22 C         142.7439  145.1070  163.5491 C.3     1  UNL1        0.0346
     23 C         143.9901  144.4354  163.0531 C.3     1  UNL1        0.1422
     24 C         141.1062  138.9239  159.4842 C.3     1  UNL1        0.0488
     25 C         139.7536  139.1158  160.1036 C.3     1  UNL1        0.0161
     26 C         142.5963  138.9545  159.3154 C.3     1  UNL1        0.0362
     27 C         143.2208  138.4110  158.0645 C.3     1  UNL1        0.0951
     28 N         142.3551  137.8370  156.9824 N.am    1  UNL1       -0.2759
     29 C         142.9794  137.2935  155.7315 C.2     1  UNL1        0.2513
     30 O         144.4696  137.3241  155.5626 O.2     1  UNL1       -0.2698
     31 C         140.8648  137.8064  157.1513 C.3     1  UNL1        0.0951
     32 C         140.2405  138.3498  158.4021 C.3     1  UNL1        0.0362
     33 C         142.1136  136.7194  154.6494 C.ar    1  UNL1        0.0807
     34 C         141.7844  135.2560  154.6496 C.ar    1  UNL1        0.0666
     35 C         142.3210  134.3667  155.7318 C.3     1  UNL1        0.0523
     36 N         140.9187  134.6818  153.5675 N.ar    1  UNL1       -0.2282
     37 C         140.3822  135.5711  152.4852 C.ar    1  UNL1        0.1982
     38 N         140.7114  137.0346  152.4850 N.ar    1  UNL1       -0.2282
     39 C         141.5771  137.6087  153.5671 C.ar    1  UNL1        0.0666
     40 C         141.9063  139.0721  153.5669 C.3     1  UNL1        0.0523
@<TRIPOS>BOND
     1    22    23    1
     2    23    21    1
     3     8    21    1
     4     8     9    1
     5     9    10    1
     6    10    11   ar
     7    11    12   ar
     8    12    17    1
     9    17    18    1
    10    17    19    1
    11    17    20    1
    12    12    13   ar
    13    13    14   ar
    14    14    15   ar
    15    15    16    1
    16    16     1    1
    17     1     2    1
    18     2     3    1
    19     3     4    1
    20     4    24    1
    21    24    25    1
    22    24    26    1
    23    26    27    1
    24    27    28    1
    25    28    29   am
    26    29    30    2
    27    29    33    1
    28    33    34   ar
    29    34    35    1
    30    34    36   ar
    31    36    37   ar
    32    37    38   ar
    33    38    39   ar
    34    39    40    1
    35    28    31    1
    36    31    32    1
    37     4     5    1
    38     5     6    1
    39     6     7    1
    40    16     8    1
    41     6     1    1
    42    15    10   ar
    43    32    24    1
    44    39    33   ar
@<TRIPOS>MOLECULE
*****
 40 44 0 0 0
SMALL
GASTEIGER

@<TRIPOS>ATOM
      1 N         142.2672  140.7856  163.5263 N.3     1  UNL1       -0.2671
      2 C         143.1427  139.6294  163.1435 C.3     1  UNL1        0.0899
      3 C         143.2291  139.1964  161.7099 C.3     1  UNL1        0.0896
      4 N         142.4400  139.9197  160.6591 N.3     1  UNL1       -0.2728
      5 C         141.5645  141.0759  161.0419 C.3     1  UNL1        0.0882
      6 C         141.4781  141.5090  162.4754 C.3     1  UNL1        0.0739
      7 C         140.6026  142.6652  162.8582 C.3     1  UNL1        0.0188
      8 C         143.1085  142.1745  165.6496 C.3     1  UNL1        0.1382
      9 C         142.6525  142.3184  167.0713 C.3     1  UNL1        0.0573
     10 C         141.4431  141.4515  167.2603 C.ar    1  UNL1       -0.0224
     11 C         140.5696  141.1933  168.4520 C.ar    1  UNL1       -0.0006
     12 C         139.4045  140.2553  168.3387 C.ar    1  UNL1        0.0711
     13 C         139.1130  139.5756  167.0337 C.ar    1  UNL1        0.0036
     14 C         139.9865  139.8339  165.8420 C.ar    1  UNL1       -0.0033
     15 C         141.1515  140.7718  165.9553 C.ar    1  UNL1       -0.0093
     16 C         142.1808  141.2187  164.9598 C.3     1  UNL1        0.1077
     17 C         138.5309  139.9970  169.5305 C.3     1  UNL1        0.4186
     18 F         137.6575  139.7388  170.7222 F       1  UNL1       -0.1659
     19 F         139.4264  140.8563  170.3730 F       1  UNL1       -0.1659
     20 F         137.6355  139.1378  168.6880 F       1  UNL1       -0.1659
     21 O         144.2855  142.8652  165.0269 O.3     1  UNL1       -0.3542
     22 C         144.4783  143.6114  162.5458 C.3     1  UNL1        0.0346
     23 C         144.0711  143.8982  163.9607 C.3     1  UNL1        0.1422
     24 C         142.5264  139.4866  159.2256 C.3     1  UNL1        0.0488
     25 C         143.8794  140.1129  159.3905 C.3     1  UNL1        0.0161
     26 C         141.1434  139.0107  159.5586 C.3     1  UNL1        0.0362
     27 C         140.3167  138.3193  158.5153 C.3     1  UNL1        0.0951
     28 N         140.8729  138.1038  157.1390 N.am    1  UNL1       -0.2759
     29 C         140.0462  137.4124  156.0957 C.2     1  UNL1        0.2513
     30 O         138.6632  136.9364  156.4287 O.2     1  UNL1       -0.2698
     31 C         142.2559  138.5797  156.8061 C.3     1  UNL1        0.0951
     32 C         143.0826  139.2711  157.8493 C.3     1  UNL1        0.0362
     33 C         140.6025  137.1968  154.7194 C.ar    1  UNL1        0.0807
     34 C         141.3268  135.9242  154.3941 C.ar    1  UNL1        0.0666
     35 C         141.4949  134.8672  155.4451 C.3     1  UNL1        0.0523
     36 N         141.8831  135.7086  153.0179 N.ar    1  UNL1       -0.2282
     37 C         141.7150  136.7656  151.9669 C.ar    1  UNL1        0.1982
     38 N         140.9907  138.0382  152.2922 N.ar    1  UNL1       -0.2282
     39 C         140.4344  138.2539  153.6685 C.ar    1  UNL1        0.0666
     40 C         139.7101  139.5264  153.9938 C.3     1  UNL1        0.0523
@<TRIPOS>BOND
     1    22    23    1
     2    23    21    1
     3     8    21    1
     4     8     9    1
     5     9    10    1
     6    10    11   ar
     7    11    12   ar
     8    12    17    1
     9    17    18    1
    10    17    19    1
    11    17    20    1
    12    12    13   ar
    13    13    14   ar
    14    14    15   ar
    15    15    16    1
    16    16     1    1
    17     1     2    1
    18     2     3    1
    19     3     4    1
    20     4    24    1
    21    24    25    1
    22    24    26    1
    23    26    27    1
    24    27    28    1
    25    28    29   am
    26    29    30    2
    27    29    33    1
    28    33    34   ar
    29    34    35    1
    30    34    36   ar
    31    36    37   ar
    32    37    38   ar
    33    38    39   ar
    34    39    40    1
    35    28    31    1
    36    31    32    1
    37     4     5    1
    38     5     6    1
    39     6     7    1
    40    16     8    1
    41     6     1    1
    42    15    10   ar
    43    32    24    1
    44    39    33   ar
@<TRIPOS>MOLECULE
*****
 40 44 0 0 0
SMALL
GASTEIGER

@<TRIPOS>ATOM
      1 N         142.7860  140.2593  159.2586 N.3     1  UNL1       -0.2671
      2 C         143.7829  140.2208  160.3787 C.3     1  UNL1        0.0899
      3 C         143.3797  140.6544  161.7569 C.3     1  UNL1        0.0896
      4 N         141.9796  141.1265  162.0150 N.3     1  UNL1       -0.2728
      5 C         140.9826  141.1650  160.8950 C.3     1  UNL1        0.0882
      6 C         141.3858  140.7315  159.5168 C.3     1  UNL1        0.0739
      7 C         140.3888  140.7700  158.3967 C.3     1  UNL1        0.0188
      8 C         143.7643  140.7073  156.8117 C.3     1  UNL1        0.1382
      9 C         144.0186  139.8608  155.5998 C.3     1  UNL1        0.0573
     10 C         143.6005  138.4561  155.9194 C.ar    1  UNL1       -0.0224
     11 C         143.6205  137.1940  155.1091 C.ar    1  UNL1       -0.0006
     12 C         143.1278  135.9102  155.7083 C.ar    1  UNL1        0.0711
     13 C         142.6151  135.8886  157.1178 C.ar    1  UNL1        0.0036
     14 C         142.5952  137.1507  157.9281 C.ar    1  UNL1       -0.0033
     15 C         143.0879  138.4344  157.3289 C.ar    1  UNL1       -0.0093
     16 C         143.1892  139.8257  157.8804 C.3     1  UNL1        0.1077
     17 C         143.1476  134.6480  154.8980 C.3     1  UNL1        0.4186
     18 F         143.1675  133.3859  154.0877 F       1  UNL1       -0.1659
     19 F         143.5519  133.8722  156.1164 F       1  UNL1       -0.1659
     20 F         142.7434  135.4239  153.6795 F       1  UNL1       -0.1659
     21 O         144.0373  142.1772  156.9336 O.3     1  UNL1       -0.3542
     22 C         146.6107  142.4872  157.1105 C.3     1  UNL1        0.0346
     23 C         145.2388  142.6564  157.6929 C.3     1  UNL1        0.1422
     24 C         141.5764  141.5601  163.3933 C.3     1  UNL1        0.0488
     25 C         140.8810  142.6086  162.5765 C.3     1  UNL1        0.0161
     26 C         142.4118  140.3610  163.7313 C.3     1  UNL1        0.0362
     27 C         142.6025  139.9596  165.1640 C.3     1  UNL1        0.0951
     28 N         141.9579  140.7572  166.2586 N.am    1  UNL1       -0.2759
     29 C         142.1486  140.3559  167.6912 C.2     1  UNL1        0.2513
     30 O         142.9840  139.1568  168.0293 O.2     1  UNL1       -0.2698
     31 C         141.1225  141.9564  165.9204 C.3     1  UNL1        0.0951
     32 C         140.9317  142.3578  164.4879 C.3     1  UNL1        0.0362
     33 C         141.5039  141.1536  168.7858 C.ar    1  UNL1        0.0807
     34 C         140.0594  140.9325  169.1239 C.ar    1  UNL1        0.0666
     35 C         139.2595  139.9137  168.3673 C.3     1  UNL1        0.0523
     36 N         139.4146  141.7301  170.2185 N.ar    1  UNL1       -0.2282
     37 C         140.2146  142.7489  170.9750 C.ar    1  UNL1        0.1982
     38 N         141.6591  142.9700  170.6369 N.ar    1  UNL1       -0.2282
     39 C         142.3039  142.1723  169.5423 C.ar    1  UNL1        0.0666
     40 C         143.7484  142.3934  169.2043 C.3     1  UNL1        0.0523
@<TRIPOS>BOND
     1    22    23    1
     2    23    21    1
     3     8    21    1
     4     8     9    1
     5     9    10    1
     6    10    11   ar
     7    11    12   ar
     8    12    17    1
     9    17    18    1
    10    17    19    1
    11    17    20    1
    12    12    13   ar
    13    13    14   ar
    14    14    15   ar
    15    15    16    1
    16    16     1    1
    17     1     2    1
    18     2     3    1
    19     3     4    1
    20     4    24    1
    21    24    25    1
    22    24    26    1
    23    26    27    1
    24    27    28    1
    25    28    29   am
    26    29    30    2
    27    29    33    1
    28    33    34   ar
    29    34    35    1
    30    34    36   ar
    31    36    37   ar
    32    37    38   ar
    33    38    39   ar
    34    39    40    1
    35    28    31    1
    36    31    32    1
    37     4     5    1
    38     5     6    1
    39     6     7    1
    40    16     8    1
    41     6     1    1
    42    15    10   ar
    43    32    24    1
    44    39    33   ar
