@<TRIPOS>MOLECULE
*****
 26 29 0 0 0
SMALL
GASTEIGER

@<TRIPOS>ATOM
      1 C         140.5137  137.6239  161.9869 C.3     1  UNL1        0.0497
      2 C         141.5384  138.3010  162.8480 C.ar    1  UNL1        0.0347
      3 C         143.0034  138.4184  162.5482 C.ar    1  UNL1        0.0070
      4 C         143.6484  139.1695  163.6751 C.ar    1  UNL1        0.0154
      5 C         142.5820  139.5164  164.6714 C.ar    1  UNL1        0.0593
      6 N         141.2779  138.9795  164.1602 N.ar    1  UNL1       -0.3328
      7 C         142.7841  140.2680  165.9536 C.ar    1  UNL1        0.0158
      8 C         143.1460  141.7232  165.9209 C.ar    1  UNL1        0.0011
      9 C         143.3482  142.4749  167.2031 C.ar    1  UNL1       -0.0042
     10 C         143.1884  141.7712  168.5181 C.ar    1  UNL1       -0.0225
     11 C         142.8265  140.3159  168.5509 C.ar    1  UNL1       -0.0042
     12 C         142.6243  139.5643  167.2687 C.ar    1  UNL1        0.0011
     13 C         143.3905  142.5229  169.8003 C.3     1  UNL1        0.0224
     14 C         142.2093  142.8905  170.6484 C.3     1  UNL1        0.0047
     15 C         144.7740  142.9069  170.2345 C.3     1  UNL1        0.0047
     16 C         139.9470  139.1001  164.8415 C.3     1  UNL1        0.0852
     17 C         138.8928  138.1313  165.2889 C.3     1  UNL1        0.0226
     18 C         138.0649  139.2706  165.8051 C.3     1  UNL1        0.0039
     19 C         139.1191  140.2394  165.3578 C.3     1  UNL1        0.0226
     20 C         143.7009  137.8793  161.3347 C.3     1  UNL1        0.1004
     21 N         143.4623  138.5052  159.9925 N.3     1  UNL1       -0.2646
     22 C         142.7649  137.7278  158.9158 C.3     1  UNL1        0.1049
     23 C         142.5263  138.3536  157.5737 C.3     1  UNL1        0.1595
     24 O         142.9851  139.7569  157.3082 O.3     1  UNL1       -0.3508
     25 C         143.6825  140.5343  158.3849 C.3     1  UNL1        0.1595
     26 C         143.9211  139.9084  159.7270 C.3     1  UNL1        0.1049
@<TRIPOS>BOND
     1     1     2    1
     2     2     3   ar
     3     3    20    1
     4    20    21    1
     5    21    22    1
     6    22    23    1
     7    23    24    1
     8    24    25    1
     9    25    26    1
    10     3     4   ar
    11     4     5   ar
    12     5     7    1
    13     7     8   ar
    14     8     9   ar
    15     9    10   ar
    16    10    13    1
    17    13    14    1
    18    13    15    1
    19    10    11   ar
    20    11    12   ar
    21     5     6   ar
    22     6    16    1
    23    16    17    1
    24    17    18    1
    25    18    19    1
    26     6     2   ar
    27    19    16    1
    28    26    21    1
    29    12     7   ar
@<TRIPOS>MOLECULE
*****
 26 29 0 0 0
SMALL
GASTEIGER

@<TRIPOS>ATOM
      1 C         137.7854  139.0995  162.0598 C.3     1  UNL1        0.0497
      2 C         138.8848  139.8431  162.7585 C.ar    1  UNL1        0.0347
      3 C         139.7802  140.8768  162.1423 C.ar    1  UNL1        0.0070
      4 C         140.7306  141.3562  163.1991 C.ar    1  UNL1        0.0154
      5 C         140.4227  140.6187  164.4685 C.ar    1  UNL1        0.0593
      6 N         139.2819  139.6835  164.1961 N.ar    1  UNL1       -0.3328
      7 C         141.1311  140.7868  165.7799 C.ar    1  UNL1        0.0158
      8 C         141.0454  142.0904  166.5170 C.ar    1  UNL1        0.0011
      9 C         141.7538  142.2585  167.8284 C.ar    1  UNL1       -0.0042
     10 C         142.5480  141.1231  168.4028 C.ar    1  UNL1       -0.0225
     11 C         142.6337  139.8194  167.6657 C.ar    1  UNL1       -0.0042
     12 C         141.9253  139.6513  166.3543 C.ar    1  UNL1        0.0011
     13 C         143.2564  141.2912  169.7142 C.3     1  UNL1        0.0224
     14 C         143.0999  140.2569  170.7892 C.3     1  UNL1        0.0047
     15 C         144.1214  142.4936  169.9506 C.3     1  UNL1        0.0047
     16 C         138.6492  138.7523  165.1874 C.3     1  UNL1        0.0852
     17 C         138.5031  137.2638  165.3008 C.3     1  UNL1        0.0226
     18 C         137.7546  137.4354  166.5893 C.3     1  UNL1        0.0039
     19 C         137.9007  138.9240  166.4759 C.3     1  UNL1        0.0226
     20 C         139.7333  141.3484  160.7192 C.3     1  UNL1        0.1004
     21 N         140.4341  142.6148  160.3252 N.3     1  UNL1       -0.2646
     22 C         141.6588  142.5567  159.4612 C.3     1  UNL1        0.1049
     23 C         142.3596  143.8230  159.0672 C.3     1  UNL1        0.1595
     24 O         141.8356  145.1476  159.5374 O.3     1  UNL1       -0.3508
     25 C         140.6109  145.2057  160.4014 C.3     1  UNL1        0.1595
     26 C         139.9101  143.9394  160.7954 C.3     1  UNL1        0.1049
@<TRIPOS>BOND
     1     1     2    1
     2     2     3   ar
     3     3    20    1
     4    20    21    1
     5    21    22    1
     6    22    23    1
     7    23    24    1
     8    24    25    1
     9    25    26    1
    10     3     4   ar
    11     4     5   ar
    12     5     7    1
    13     7     8   ar
    14     8     9   ar
    15     9    10   ar
    16    10    13    1
    17    13    14    1
    18    13    15    1
    19    10    11   ar
    20    11    12   ar
    21     5     6   ar
    22     6    16    1
    23    16    17    1
    24    17    18    1
    25    18    19    1
    26     6     2   ar
    27    19    16    1
    28    26    21    1
    29    12     7   ar
@<TRIPOS>MOLECULE
*****
 26 29 0 0 0
SMALL
GASTEIGER

@<TRIPOS>ATOM
      1 C         137.8251  140.1349  161.7836 C.3     1  UNL1        0.0497
      2 C         138.7155  140.9899  162.6359 C.ar    1  UNL1        0.0347
      3 C         139.2998  142.3156  162.2473 C.ar    1  UNL1        0.0070
      4 C         140.1233  142.8143  163.3976 C.ar    1  UNL1        0.0154
      5 C         140.0479  141.7968  164.4972 C.ar    1  UNL1        0.0593
      6 N         139.1778  140.6692  164.0263 N.ar    1  UNL1       -0.3328
      7 C         140.7238  141.8904  165.8329 C.ar    1  UNL1        0.0158
      8 C         141.9666  141.0948  166.1020 C.ar    1  UNL1        0.0011
      9 C         142.6426  141.1884  167.4377 C.ar    1  UNL1       -0.0042
     10 C         142.0758  142.0776  168.5044 C.ar    1  UNL1       -0.0225
     11 C         140.8330  142.8732  168.2354 C.ar    1  UNL1       -0.0042
     12 C         140.1570  142.7796  166.8997 C.ar    1  UNL1        0.0011
     13 C         142.7517  142.1711  169.8402 C.3     1  UNL1        0.0224
     14 C         141.9939  141.8329  171.0896 C.3     1  UNL1        0.0047
     15 C         144.1857  142.6030  169.9265 C.3     1  UNL1        0.0047
     16 C         138.8309  139.4373  164.8087 C.3     1  UNL1        0.0852
     17 C         138.1477  139.1689  166.1168 C.3     1  UNL1        0.0226
     18 C         138.3404  137.6951  165.9151 C.3     1  UNL1        0.0039
     19 C         139.0236  137.9634  164.6070 C.3     1  UNL1        0.0226
     20 C         139.0964  143.0191  160.9382 C.3     1  UNL1        0.1004
     21 N         140.2786  143.5344  160.1721 N.3     1  UNL1       -0.2646
     22 C         140.2622  144.9271  159.6152 C.3     1  UNL1        0.1049
     23 C         141.4443  145.4424  158.8491 C.3     1  UNL1        0.1595
     24 O         142.6428  144.5650  158.6398 O.3     1  UNL1       -0.3508
     25 C         142.6592  143.1723  159.1967 C.3     1  UNL1        0.1595
     26 C         141.4771  142.6570  159.9628 C.3     1  UNL1        0.1049
@<TRIPOS>BOND
     1     1     2    1
     2     2     3   ar
     3     3    20    1
     4    20    21    1
     5    21    22    1
     6    22    23    1
     7    23    24    1
     8    24    25    1
     9    25    26    1
    10     3     4   ar
    11     4     5   ar
    12     5     7    1
    13     7     8   ar
    14     8     9   ar
    15     9    10   ar
    16    10    13    1
    17    13    14    1
    18    13    15    1
    19    10    11   ar
    20    11    12   ar
    21     5     6   ar
    22     6    16    1
    23    16    17    1
    24    17    18    1
    25    18    19    1
    26     6     2   ar
    27    19    16    1
    28    26    21    1
    29    12     7   ar
@<TRIPOS>MOLECULE
*****
 26 29 0 0 0
SMALL
GASTEIGER

@<TRIPOS>ATOM
      1 C         138.1043  138.4807  162.1076 C.3     1  UNL1        0.0497
      2 C         139.1091  139.3687  162.7798 C.ar    1  UNL1        0.0347
      3 C         140.0437  140.3201  162.0934 C.ar    1  UNL1        0.0070
      4 C         140.8679  141.0006  163.1459 C.ar    1  UNL1        0.0154
      5 C         140.4426  140.4698  164.4828 C.ar    1  UNL1        0.0593
      6 N         139.3555  139.4612  164.2565 N.ar    1  UNL1       -0.3328
      7 C         141.0054  140.8761  165.8124 C.ar    1  UNL1        0.0158
      8 C         140.4870  142.1024  166.5032 C.ar    1  UNL1        0.0011
      9 C         141.0499  142.5088  167.8329 C.ar    1  UNL1       -0.0042
     10 C         142.1311  141.6888  168.4718 C.ar    1  UNL1       -0.0225
     11 C         142.6497  140.4625  167.7811 C.ar    1  UNL1       -0.0042
     12 C         142.0868  140.0561  166.4514 C.ar    1  UNL1        0.0011
     13 C         142.6940  142.0952  169.8014 C.3     1  UNL1        0.0224
     14 C         144.1198  142.5493  169.9052 C.3     1  UNL1        0.0047
     15 C         141.8310  142.0474  171.0274 C.3     1  UNL1        0.0047
     16 C         138.6405  138.6819  165.3202 C.3     1  UNL1        0.0852
     17 C         137.8711  139.0361  166.5582 C.3     1  UNL1        0.0226
     18 C         137.6293  137.5799  166.8246 C.3     1  UNL1        0.0039
     19 C         138.3987  137.2257  165.5866 C.3     1  UNL1        0.0226
     20 C         140.1378  140.5505  160.6142 C.3     1  UNL1        0.1004
     21 N         141.2911  139.9857  159.8389 N.3     1  UNL1       -0.2646
     22 C         142.5092  140.8245  159.5887 C.3     1  UNL1        0.1049
     23 C         143.6624  140.2596  158.8135 C.3     1  UNL1        0.1595
     24 O         143.5975  138.8560  158.2885 O.3     1  UNL1       -0.3508
     25 C         142.3794  138.0172  158.5387 C.3     1  UNL1        0.1595
     26 C         141.2262  138.5821  159.3139 C.3     1  UNL1        0.1049
@<TRIPOS>BOND
     1     1     2    1
     2     2     3   ar
     3     3    20    1
     4    20    21    1
     5    21    22    1
     6    22    23    1
     7    23    24    1
     8    24    25    1
     9    25    26    1
    10     3     4   ar
    11     4     5   ar
    12     5     7    1
    13     7     8   ar
    14     8     9   ar
    15     9    10   ar
    16    10    13    1
    17    13    14    1
    18    13    15    1
    19    10    11   ar
    20    11    12   ar
    21     5     6   ar
    22     6    16    1
    23    16    17    1
    24    17    18    1
    25    18    19    1
    26     6     2   ar
    27    19    16    1
    28    26    21    1
    29    12     7   ar
@<TRIPOS>MOLECULE
*****
 26 29 0 0 0
SMALL
GASTEIGER

@<TRIPOS>ATOM
      1 C         138.6765  142.6146  160.9658 C.3     1  UNL1        0.0497
      2 C         139.2330  141.6169  161.9377 C.ar    1  UNL1        0.0347
      3 C         139.7112  140.2345  161.6056 C.ar    1  UNL1        0.0070
      4 C         140.1828  139.5896  162.8752 C.ar    1  UNL1        0.0154
      5 C         139.9961  140.5734  163.9919 C.ar    1  UNL1        0.0593
      6 N         139.4091  141.8264  163.4125 N.ar    1  UNL1       -0.3328
      7 C         140.3366  140.3446  165.4347 C.ar    1  UNL1        0.0158
      8 C         141.7719  140.2735  165.8645 C.ar    1  UNL1        0.0011
      9 C         142.1124  140.0446  167.3072 C.ar    1  UNL1       -0.0042
     10 C         141.0176  139.8868  168.3203 C.ar    1  UNL1       -0.0225
     11 C         139.5822  139.9578  167.8906 C.ar    1  UNL1       -0.0042
     12 C         139.2417  140.1867  166.4478 C.ar    1  UNL1        0.0011
     13 C         141.3581  139.6579  169.7631 C.3     1  UNL1        0.0224
     14 C         142.5372  138.8063  170.1294 C.3     1  UNL1        0.0047
     15 C         140.5194  140.2807  170.8395 C.3     1  UNL1        0.0047
     16 C         139.0596  143.0704  164.1743 C.3     1  UNL1        0.0852
     17 C         139.8181  144.0325  165.0398 C.3     1  UNL1        0.0226
     18 C         138.5653  144.8297  165.2516 C.3     1  UNL1        0.0039
     19 C         137.8067  143.8677  164.3861 C.3     1  UNL1        0.0226
     20 C         139.7168  139.6071  160.2431 C.3     1  UNL1        0.1004
     21 N         141.0116  139.4177  159.5099 N.3     1  UNL1       -0.2646
     22 C         142.1790  140.3118  159.8061 C.3     1  UNL1        0.1049
     23 C         143.4738  140.1223  159.0729 C.3     1  UNL1        0.1595
     24 O         143.6012  139.0387  158.0436 O.3     1  UNL1       -0.3508
     25 C         142.4338  138.1446  157.7474 C.3     1  UNL1        0.1595
     26 C         141.1390  138.3341  158.4806 C.3     1  UNL1        0.1049
@<TRIPOS>BOND
     1     1     2    1
     2     2     3   ar
     3     3    20    1
     4    20    21    1
     5    21    22    1
     6    22    23    1
     7    23    24    1
     8    24    25    1
     9    25    26    1
    10     3     4   ar
    11     4     5   ar
    12     5     7    1
    13     7     8   ar
    14     8     9   ar
    15     9    10   ar
    16    10    13    1
    17    13    14    1
    18    13    15    1
    19    10    11   ar
    20    11    12   ar
    21     5     6   ar
    22     6    16    1
    23    16    17    1
    24    17    18    1
    25    18    19    1
    26     6     2   ar
    27    19    16    1
    28    26    21    1
    29    12     7   ar
@<TRIPOS>MOLECULE
*****
 26 29 0 0 0
SMALL
GASTEIGER

@<TRIPOS>ATOM
      1 C         138.2650  142.0749  161.1313 C.3     1  UNL1        0.0497
      2 C         138.8154  141.1280  162.1562 C.ar    1  UNL1        0.0347
      3 C         139.0997  139.6702  161.9471 C.ar    1  UNL1        0.0070
      4 C         139.6382  139.1139  163.2319 C.ar    1  UNL1        0.0154
      5 C         139.6867  140.2280  164.2351 C.ar    1  UNL1        0.0593
      6 N         139.1782  141.4729  163.5702 N.ar    1  UNL1       -0.3328
      7 C         140.1605  140.1169  165.6539 C.ar    1  UNL1        0.0158
      8 C         139.1650  140.0377  166.7731 C.ar    1  UNL1        0.0011
      9 C         139.6389  139.9266  168.1919 C.ar    1  UNL1       -0.0042
     10 C         141.1082  139.8946  168.4916 C.ar    1  UNL1       -0.0225
     11 C         142.1038  139.9738  167.3724 C.ar    1  UNL1       -0.0042
     12 C         141.6300  140.0849  165.9536 C.ar    1  UNL1        0.0011
     13 C         141.5820  139.7835  169.9104 C.3     1  UNL1        0.0224
     14 C         142.6517  138.7949  170.2686 C.3     1  UNL1        0.0047
     15 C         140.9861  140.6610  170.9710 C.3     1  UNL1        0.0047
     16 C         139.0543  142.8251  164.2076 C.3     1  UNL1        0.0852
     17 C         140.0033  143.7706  164.8822 C.3     1  UNL1        0.0226
     18 C         138.8790  144.7374  165.1089 C.3     1  UNL1        0.0039
     19 C         137.9300  143.7918  164.4343 C.3     1  UNL1        0.0226
     20 C         138.8834  138.9032  160.6763 C.3     1  UNL1        0.1004
     21 N         140.0482  138.5787  159.7886 N.3     1  UNL1       -0.2646
     22 C         141.4202  138.4294  160.3762 C.3     1  UNL1        0.1049
     23 C         142.5850  138.1049  159.4885 C.3     1  UNL1        0.1595
     24 O         142.3777  137.9298  158.0132 O.3     1  UNL1       -0.3508
     25 C         141.0057  138.0792  157.4256 C.3     1  UNL1        0.1595
     26 C         139.8410  138.4036  158.3133 C.3     1  UNL1        0.1049
@<TRIPOS>BOND
     1     1     2    1
     2     2     3   ar
     3     3    20    1
     4    20    21    1
     5    21    22    1
     6    22    23    1
     7    23    24    1
     8    24    25    1
     9    25    26    1
    10     3     4   ar
    11     4     5   ar
    12     5     7    1
    13     7     8   ar
    14     8     9   ar
    15     9    10   ar
    16    10    13    1
    17    13    14    1
    18    13    15    1
    19    10    11   ar
    20    11    12   ar
    21     5     6   ar
    22     6    16    1
    23    16    17    1
    24    17    18    1
    25    18    19    1
    26     6     2   ar
    27    19    16    1
    28    26    21    1
    29    12     7   ar
@<TRIPOS>MOLECULE
*****
 26 29 0 0 0
SMALL
GASTEIGER

@<TRIPOS>ATOM
      1 C         144.2693  140.4786  161.3735 C.3     1  UNL1        0.0497
      2 C         143.3791  139.8723  162.4174 C.ar    1  UNL1        0.0347
      3 C         142.6368  138.5744  162.2975 C.ar    1  UNL1        0.0070
      4 C         141.8738  138.3574  163.5706 C.ar    1  UNL1        0.0154
      5 C         142.1447  139.5211  164.4774 C.ar    1  UNL1        0.0593
      6 N         143.0750  140.4574  163.7647 N.ar    1  UNL1       -0.3328
      7 C         141.5837  139.7147  165.8550 C.ar    1  UNL1        0.0158
      8 C         142.4883  139.6465  167.0496 C.ar    1  UNL1        0.0011
      9 C         141.9273  139.8400  168.4272 C.ar    1  UNL1       -0.0042
     10 C         140.4618  140.1017  168.6103 C.ar    1  UNL1       -0.0225
     11 C         139.5571  140.1699  167.4157 C.ar    1  UNL1       -0.0042
     12 C         140.1181  139.9764  166.0381 C.ar    1  UNL1        0.0011
     13 C         139.9008  140.2952  169.9879 C.3     1  UNL1        0.0224
     14 C         138.4210  140.2031  170.2149 C.3     1  UNL1        0.0047
     15 C         140.8197  140.5809  171.1386 C.3     1  UNL1        0.0047
     16 C         143.6077  141.7516  164.3045 C.3     1  UNL1        0.0852
     17 C         144.9631  142.3889  164.3863 C.3     1  UNL1        0.0226
     18 C         144.3611  143.5817  165.0679 C.3     1  UNL1        0.0039
     19 C         143.0057  142.9444  164.9862 C.3     1  UNL1        0.0226
     20 C         142.6543  137.6550  161.1124 C.3     1  UNL1        0.1004
     21 N         141.9528  138.0496  159.8466 N.3     1  UNL1       -0.2646
     22 C         142.6245  137.8435  158.5214 C.3     1  UNL1        0.1049
     23 C         141.9230  138.2381  157.2556 C.3     1  UNL1        0.1595
     24 O         140.5498  138.8387  157.3151 O.3     1  UNL1       -0.3508
     25 C         139.8781  139.0447  158.6403 C.3     1  UNL1        0.1595
     26 C         140.5796  138.6502  159.9061 C.3     1  UNL1        0.1049
@<TRIPOS>BOND
     1     1     2    1
     2     2     3   ar
     3     3    20    1
     4    20    21    1
     5    21    22    1
     6    22    23    1
     7    23    24    1
     8    24    25    1
     9    25    26    1
    10     3     4   ar
    11     4     5   ar
    12     5     7    1
    13     7     8   ar
    14     8     9   ar
    15     9    10   ar
    16    10    13    1
    17    13    14    1
    18    13    15    1
    19    10    11   ar
    20    11    12   ar
    21     5     6   ar
    22     6    16    1
    23    16    17    1
    24    17    18    1
    25    18    19    1
    26     6     2   ar
    27    19    16    1
    28    26    21    1
    29    12     7   ar
@<TRIPOS>MOLECULE
*****
 26 29 0 0 0
SMALL
GASTEIGER

@<TRIPOS>ATOM
      1 C         143.4053  143.2643  160.8962 C.3     1  UNL1        0.0497
      2 C         142.4258  143.2676  162.0323 C.ar    1  UNL1        0.0347
      3 C         141.2005  144.1264  162.1375 C.ar    1  UNL1        0.0070
      4 C         140.5171  143.8022  163.4329 C.ar    1  UNL1        0.0154
      5 C         141.3201  142.7431  164.1282 C.ar    1  UNL1        0.0593
      6 N         142.4998  142.4127  163.2625 N.ar    1  UNL1       -0.3328
      7 C         140.9997  142.1232  165.4560 C.ar    1  UNL1        0.0158
      8 C         139.9122  141.0956  165.5611 C.ar    1  UNL1        0.0011
      9 C         139.5918  140.4757  166.8889 C.ar    1  UNL1       -0.0042
     10 C         140.3589  140.8835  168.1116 C.ar    1  UNL1       -0.0225
     11 C         141.4465  141.9111  168.0066 C.ar    1  UNL1       -0.0042
     12 C         141.7669  142.5310  166.6788 C.ar    1  UNL1        0.0011
     13 C         140.0385  140.2636  169.4394 C.3     1  UNL1        0.0224
     14 C         141.1254  139.6208  170.2489 C.3     1  UNL1        0.0047
     15 C         138.6311  140.2865  169.9578 C.3     1  UNL1        0.0047
     16 C         143.5661  141.4044  163.5728 C.3     1  UNL1        0.0852
     17 C         143.6713  139.9107  163.4847 C.3     1  UNL1        0.0226
     18 C         145.0741  139.9784  164.0115 C.3     1  UNL1        0.0039
     19 C         144.9690  141.4721  164.0995 C.3     1  UNL1        0.0226
     20 C         140.7395  145.1326  161.1251 C.3     1  UNL1        0.1004
     21 N         140.2556  144.6763  159.7806 N.3     1  UNL1       -0.2646
     22 C         139.5111  143.3805  159.6516 C.3     1  UNL1        0.1049
     23 C         139.0272  142.9243  158.3072 C.3     1  UNL1        0.1595
     24 O         139.2878  143.7638  157.0917 O.3     1  UNL1       -0.3508
     25 C         140.0322  145.0595  157.2207 C.3     1  UNL1        0.1595
     26 C         140.5161  145.5158  158.5652 C.3     1  UNL1        0.1049
@<TRIPOS>BOND
     1     1     2    1
     2     2     3   ar
     3     3    20    1
     4    20    21    1
     5    21    22    1
     6    22    23    1
     7    23    24    1
     8    24    25    1
     9    25    26    1
    10     3     4   ar
    11     4     5   ar
    12     5     7    1
    13     7     8   ar
    14     8     9   ar
    15     9    10   ar
    16    10    13    1
    17    13    14    1
    18    13    15    1
    19    10    11   ar
    20    11    12   ar
    21     5     6   ar
    22     6    16    1
    23    16    17    1
    24    17    18    1
    25    18    19    1
    26     6     2   ar
    27    19    16    1
    28    26    21    1
    29    12     7   ar
@<TRIPOS>MOLECULE
*****
 26 29 0 0 0
SMALL
GASTEIGER

@<TRIPOS>ATOM
      1 C         142.3015  138.2828  160.8301 C.3     1  UNL1        0.0497
      2 C         141.3798  138.7746  161.9065 C.ar    1  UNL1        0.0347
      3 C         139.8808  138.7369  161.8689 C.ar    1  UNL1        0.0070
      4 C         139.3700  139.3294  163.1488 C.ar    1  UNL1        0.0154
      5 C         140.5533  139.7332  163.9774 C.ar    1  UNL1        0.0593
      6 N         141.7955  139.3903  163.2097 N.ar    1  UNL1       -0.3328
      7 C         140.5032  140.3684  165.3354 C.ar    1  UNL1        0.0158
      8 C         140.8669  141.8141  165.5010 C.ar    1  UNL1        0.0011
      9 C         140.8169  142.4493  166.8589 C.ar    1  UNL1       -0.0042
     10 C         140.4031  141.6388  168.0512 C.ar    1  UNL1       -0.0225
     11 C         140.0393  140.1930  167.8857 C.ar    1  UNL1       -0.0042
     12 C         140.0894  139.5578  166.5277 C.ar    1  UNL1        0.0011
     13 C         140.3530  142.2740  169.4091 C.3     1  UNL1        0.0224
     14 C         140.3505  143.7683  169.5385 C.3     1  UNL1        0.0047
     15 C         140.3055  141.4147  170.6378 C.3     1  UNL1        0.0047
     16 C         143.2057  139.6224  163.6651 C.3     1  UNL1        0.0852
     17 C         144.3766  140.3975  163.1376 C.3     1  UNL1        0.0226
     18 C         145.2001  139.9507  164.3091 C.3     1  UNL1        0.0039
     19 C         144.0291  139.1756  164.8366 C.3     1  UNL1        0.0226
     20 C         139.0402  138.2009  160.7482 C.3     1  UNL1        0.1004
     21 N         138.9154  138.9734  159.4685 N.3     1  UNL1       -0.2646
     22 C         139.6602  138.5252  158.2461 C.3     1  UNL1        0.1049
     23 C         139.5353  139.2977  156.9664 C.3     1  UNL1        0.1595
     24 O         138.6657  140.5185  156.9092 O.3     1  UNL1       -0.3508
     25 C         137.9209  140.9668  158.1316 C.3     1  UNL1        0.1595
     26 C         138.0457  140.1943  159.4112 C.3     1  UNL1        0.1049
@<TRIPOS>BOND
     1     1     2    1
     2     2     3   ar
     3     3    20    1
     4    20    21    1
     5    21    22    1
     6    22    23    1
     7    23    24    1
     8    24    25    1
     9    25    26    1
    10     3     4   ar
    11     4     5   ar
    12     5     7    1
    13     7     8   ar
    14     8     9   ar
    15     9    10   ar
    16    10    13    1
    17    13    14    1
    18    13    15    1
    19    10    11   ar
    20    11    12   ar
    21     5     6   ar
    22     6    16    1
    23    16    17    1
    24    17    18    1
    25    18    19    1
    26     6     2   ar
    27    19    16    1
    28    26    21    1
    29    12     7   ar
