@<TRIPOS>MOLECULE
*****
 37 43 0 0 0
SMALL
GASTEIGER

@<TRIPOS>ATOM
      1 C         142.5301  138.8156  159.1200 C.ar    1  UNL1        0.0191
      2 C         143.8684  139.3034  159.5903 C.ar    1  UNL1        0.0028
      3 C         144.0800  139.6331  161.0383 C.ar    1  UNL1        0.0147
      4 C         142.9534  139.4749  162.0159 C.ar    1  UNL1        0.0519
      5 C         141.6152  138.9871  161.5457 C.ar    1  UNL1        0.0159
      6 C         141.4035  138.6575  160.0977 C.ar    1  UNL1        0.0005
      7 C         140.6992  138.9305  162.7322 C.3     1  UNL1        0.1495
      8 C         139.9271  138.4777  161.5286 C.3     1  UNL1        0.0332
      9 C         138.5339  138.1413  161.9713 C.3     1  UNL1        0.0240
     10 C         138.4451  138.3862  163.4485 C.3     1  UNL1        0.0941
     11 N         139.7833  138.8740  163.9188 N.am    1  UNL1       -0.2715
     12 C         140.1426  139.2408  165.3281 C.2     1  UNL1        0.2256
     13 O         140.8487  139.5009  165.5910 O.2     1  UNL1       -0.2749
     14 C         141.4714  139.3834  163.9359 C.2     1  UNL1        0.2494
     15 O         141.2794  139.4672  164.7050 O.2     1  UNL1       -0.2725
     16 N         142.8646  139.7198  163.4932 N.am    1  UNL1       -0.2556
     17 C         143.9741  140.2143  164.3732 C.3     1  UNL1        0.1201
     18 C         143.0831  134.7421  156.8588 C.ar    1  UNL1        0.1480
     19 N         143.0157  135.8433  157.8751 N.ar    1  UNL1       -0.2236
     20 C         142.5642  137.0917  157.1767 C.ar    1  UNL1        0.1345
     21 C         142.3185  138.4860  157.6721 C.ar    1  UNL1        0.1036
     22 N         141.8611  139.5506  156.7196 N.ar    1  UNL1       -0.2223
     23 C         141.6494  139.2210  155.2717 C.ar    1  UNL1        0.2003
     24 N         141.8951  137.8266  154.7762 N.ar    1  UNL1       -0.2049
     25 C         142.3525  136.7620  155.7287 C.ar    1  UNL1        0.1660
     26 N         142.6732  135.3100  155.5322 N.ar    1  UNL1       -0.2947
     27 C         142.5974  134.5577  154.2368 C.3     1  UNL1        0.1334
     28 C         144.7069  129.0633  157.9143 C.3     1  UNL1        0.0737
     29 C         144.3010  130.4830  157.6504 C.ar    1  UNL1        0.1396
     30 N         143.0402  130.7739  156.8915 N.ar    1  UNL1       -0.2290
     31 C         142.6343  132.1936  156.6276 C.ar    1  UNL1        0.1048
     32 C         143.4890  133.3224  157.1227 C.ar    1  UNL1        0.0725
     33 C         144.7497  133.0316  157.8816 C.ar    1  UNL1        0.1048
     34 N         145.1557  131.6119  158.1455 N.ar    1  UNL1       -0.2290
     35 C         139.1157  139.1329  166.4162 C.3     1  UNL1        0.0768
     36 C         137.8017  138.6087  166.9150 C.3     1  UNL1        0.0096
     37 C         138.6511  139.4700  167.8020 C.3     1  UNL1        0.0096
@<TRIPOS>BOND
     1    28    29    1
     2    29    30   ar
     3    30    31   ar
     4    31    32   ar
     5    32    18    1
     6    18    19   ar
     7    19    20   ar
     8    20    21   ar
     9    21     1    1
    10     1     2   ar
    11     2     3   ar
    12     3     4   ar
    13     4     5   ar
    14     5     6   ar
    15     5     7    1
    16     7     8    1
    17     8     9    1
    18     9    10    1
    19    10    11    1
    20    11    12   am
    21    12    13    2
    22    12    35    1
    23    35    36    1
    24    36    37    1
    25     7    14    1
    26    14    15    2
    27    14    16   am
    28    16    17    1
    29    21    22   ar
    30    22    23   ar
    31    23    24   ar
    32    24    25   ar
    33    25    26   ar
    34    26    27    1
    35    32    33   ar
    36    33    34   ar
    37    34    29   ar
    38    26    18   ar
    39    25    20   ar
    40     6     1   ar
    41    11     7    1
    42    37    35    1
    43    16     4    1
@<TRIPOS>MOLECULE
*****
 37 43 0 0 0
SMALL
GASTEIGER

@<TRIPOS>ATOM
      1 C         142.6300  136.3443  156.4119 C.ar    1  UNL1        0.0191
      2 C         141.4911  136.2284  155.4426 C.ar    1  UNL1        0.0028
      3 C         141.0561  134.8783  154.9545 C.ar    1  UNL1        0.0147
      4 C         141.7600  133.6442  155.4358 C.ar    1  UNL1        0.0519
      5 C         142.8989  133.7601  156.4050 C.ar    1  UNL1        0.0159
      6 C         143.3339  135.1101  156.8931 C.ar    1  UNL1        0.0005
      7 C         143.3985  132.3770  156.7008 C.3     1  UNL1        0.1495
      8 C         144.2286  133.3478  157.4873 C.3     1  UNL1        0.0332
      9 C         145.2412  132.5646  158.2692 C.3     1  UNL1        0.0240
     10 C         145.0369  131.1098  157.9659 C.3     1  UNL1        0.0941
     11 N         143.8981  130.9939  156.9966 N.am    1  UNL1       -0.2715
     12 C         143.3542  129.7188  156.4236 C.2     1  UNL1        0.2256
     13 O         142.7505  129.6434  155.9086 O.2     1  UNL1       -0.2749
     14 C         142.5683  131.4063  155.9143 C.2     1  UNL1        0.2494
     15 O         142.5765  130.6118  155.8495 O.2     1  UNL1       -0.2725
     16 N         141.5557  132.1895  155.1325 N.am    1  UNL1       -0.2556
     17 C         140.5205  131.6182  154.2094 C.3     1  UNL1        0.1201
     18 C         141.6822  138.5196  160.4594 C.ar    1  UNL1        0.1480
     19 N         141.7746  137.5556  159.3138 N.ar    1  UNL1       -0.2236
     20 C         142.6279  138.1803  158.2500 C.ar    1  UNL1        0.1345
     21 C         143.0650  137.6943  156.9000 C.ar    1  UNL1        0.1036
     22 N         143.9371  138.5582  156.0380 N.ar    1  UNL1       -0.2223
     23 C         144.3721  139.9082  156.5261 C.ar    1  UNL1        0.2003
     24 N         143.9350  140.3943  157.8762 N.ar    1  UNL1       -0.2049
     25 C         143.0629  139.5303  158.7382 C.ar    1  UNL1        0.1660
     26 N         142.4785  139.7400  160.1036 N.ar    1  UNL1       -0.2947
     27 C         142.6585  140.9565  160.9625 C.3     1  UNL1        0.1334
     28 C         138.6587  137.6469  165.5678 C.3     1  UNL1        0.0737
     29 C         139.4145  137.8650  164.2908 C.ar    1  UNL1        0.1396
     30 N         140.9042  137.6914  164.2618 N.ar    1  UNL1       -0.2290
     31 C         141.6601  137.9096  162.9847 C.ar    1  UNL1        0.1048
     32 C         140.9263  138.3014  161.7365 C.ar    1  UNL1        0.0725
     33 C         139.4367  138.4750  161.7654 C.ar    1  UNL1        0.1048
     34 N         138.6808  138.2569  163.0425 N.ar    1  UNL1       -0.2290
     35 C         143.9592  128.4030  156.8142 C.3     1  UNL1        0.0768
     36 C         145.1592  127.5121  156.9432 C.3     1  UNL1        0.0096
     37 C         143.8073  127.0148  157.3619 C.3     1  UNL1        0.0096
@<TRIPOS>BOND
     1    28    29    1
     2    29    30   ar
     3    30    31   ar
     4    31    32   ar
     5    32    18    1
     6    18    19   ar
     7    19    20   ar
     8    20    21   ar
     9    21     1    1
    10     1     2   ar
    11     2     3   ar
    12     3     4   ar
    13     4     5   ar
    14     5     6   ar
    15     5     7    1
    16     7     8    1
    17     8     9    1
    18     9    10    1
    19    10    11    1
    20    11    12   am
    21    12    13    2
    22    12    35    1
    23    35    36    1
    24    36    37    1
    25     7    14    1
    26    14    15    2
    27    14    16   am
    28    16    17    1
    29    21    22   ar
    30    22    23   ar
    31    23    24   ar
    32    24    25   ar
    33    25    26   ar
    34    26    27    1
    35    32    33   ar
    36    33    34   ar
    37    34    29   ar
    38    26    18   ar
    39    25    20   ar
    40     6     1   ar
    41    11     7    1
    42    37    35    1
    43    16     4    1
@<TRIPOS>MOLECULE
*****
 37 43 0 0 0
SMALL
GASTEIGER

@<TRIPOS>ATOM
      1 C         139.2417  140.2808  161.4566 C.ar    1  UNL1        0.0191
      2 C         138.6638  138.8970  161.4888 C.ar    1  UNL1        0.0028
      3 C         138.4363  138.2097  162.8026 C.ar    1  UNL1        0.0147
      4 C         138.7866  138.9063  164.0840 C.ar    1  UNL1        0.0519
      5 C         139.3646  140.2901  164.0517 C.ar    1  UNL1        0.0159
      6 C         139.5921  140.9774  162.7381 C.ar    1  UNL1        0.0005
      7 C         139.6106  140.7228  165.4668 C.3     1  UNL1        0.1495
      8 C         140.0365  141.8392  164.5599 C.3     1  UNL1        0.0332
      9 C         140.5457  142.9619  165.4145 C.3     1  UNL1        0.0240
     10 C         140.4345  142.5393  166.8495 C.3     1  UNL1        0.0941
     11 N         139.8566  141.1555  166.8818 N.am    1  UNL1       -0.2715
     12 C         139.5743  140.3464  168.1129 C.2     1  UNL1        0.2256
     13 O         139.2679  139.6112  168.1439 O.2     1  UNL1       -0.2749
     14 C         139.1847  139.6064  166.3736 C.2     1  UNL1        0.2494
     15 O         139.1847  139.5196  167.1660 O.2     1  UNL1       -0.2725
     16 N         138.6755  138.4837  165.5190 N.am    1  UNL1       -0.2556
     17 C         138.1478  137.1693  166.0127 C.3     1  UNL1        0.1201
     18 C         140.9418  138.5717  157.4315 C.ar    1  UNL1        0.1480
     19 N         140.4534  138.7694  158.8359 N.ar    1  UNL1       -0.2236
     20 C         140.0314  140.2013  158.9827 C.ar    1  UNL1        0.1345
     21 C         139.4693  140.9681  160.1429 C.ar    1  UNL1        0.1036
     22 N         139.1347  142.4223  159.9893 N.ar    1  UNL1       -0.2223
     23 C         139.3623  143.1096  158.6757 C.ar    1  UNL1        0.2003
     24 N         139.9244  142.3427  157.5154 N.ar    1  UNL1       -0.2049
     25 C         140.2590  140.8886  157.6690 C.ar    1  UNL1        0.1660
     26 N         140.8216  139.8816  156.7103 N.ar    1  UNL1       -0.2947
     27 C         141.1980  140.1389  155.2813 C.3     1  UNL1        0.1334
     28 C         143.0125  133.4427  155.1067 C.3     1  UNL1        0.0737
     29 C         142.4948  134.7249  155.6879 C.ar    1  UNL1        0.1396
     30 N         143.3185  135.4819  156.6873 N.ar    1  UNL1       -0.2290
     31 C         142.8008  136.7642  157.2684 C.ar    1  UNL1        0.1048
     32 C         141.4595  137.2895  156.8503 C.ar    1  UNL1        0.0725
     33 C         140.6358  136.5326  155.8510 C.ar    1  UNL1        0.1048
     34 N         141.1535  135.2503  155.2698 N.ar    1  UNL1       -0.2290
     35 C         139.8741  140.9141  169.4685 C.3     1  UNL1        0.0768
     36 C         139.8179  142.0554  170.4404 C.3     1  UNL1        0.0096
     37 C         140.4497  140.7563  170.8447 C.3     1  UNL1        0.0096
@<TRIPOS>BOND
     1    28    29    1
     2    29    30   ar
     3    30    31   ar
     4    31    32   ar
     5    32    18    1
     6    18    19   ar
     7    19    20   ar
     8    20    21   ar
     9    21     1    1
    10     1     2   ar
    11     2     3   ar
    12     3     4   ar
    13     4     5   ar
    14     5     6   ar
    15     5     7    1
    16     7     8    1
    17     8     9    1
    18     9    10    1
    19    10    11    1
    20    11    12   am
    21    12    13    2
    22    12    35    1
    23    35    36    1
    24    36    37    1
    25     7    14    1
    26    14    15    2
    27    14    16   am
    28    16    17    1
    29    21    22   ar
    30    22    23   ar
    31    23    24   ar
    32    24    25   ar
    33    25    26   ar
    34    26    27    1
    35    32    33   ar
    36    33    34   ar
    37    34    29   ar
    38    26    18   ar
    39    25    20   ar
    40     6     1   ar
    41    11     7    1
    42    37    35    1
    43    16     4    1
@<TRIPOS>MOLECULE
*****
 37 43 0 0 0
SMALL
GASTEIGER

@<TRIPOS>ATOM
      1 C         141.5617  139.6574  161.3264 C.ar    1  UNL1        0.0191
      2 C         140.6564  138.4642  161.2453 C.ar    1  UNL1        0.0028
      3 C         139.9046  138.0091  162.4610 C.ar    1  UNL1        0.0147
      4 C         140.0581  138.7473  163.7577 C.ar    1  UNL1        0.0519
      5 C         140.9635  139.9406  163.8388 C.ar    1  UNL1        0.0159
      6 C         141.7152  140.3956  162.6232 C.ar    1  UNL1        0.0005
      7 C         140.9148  140.4648  165.2434 C.3     1  UNL1        0.1495
      8 C         141.8502  141.3341  164.4564 C.3     1  UNL1        0.0332
      9 C         142.3796  142.3955  165.3746 C.3     1  UNL1        0.0240
     10 C         141.7714  142.1822  166.7291 C.3     1  UNL1        0.0941
     11 N         140.8660  140.9890  166.6480 N.am    1  UNL1       -0.2715
     12 C         140.0545  140.4198  167.7738 C.2     1  UNL1        0.2256
     13 O         139.5702  139.7874  167.7442 O.2     1  UNL1       -0.2749
     14 C         139.9793  139.5955  166.0304 C.2     1  UNL1        0.2494
     15 O         139.7385  139.6045  166.7903 O.2     1  UNL1       -0.2725
     16 N         139.4499  138.5341  165.1122 N.am    1  UNL1       -0.2556
     17 C         138.4822  137.4497  165.4833 C.3     1  UNL1        0.1201
     18 C         142.6162  137.3155  157.4001 C.ar    1  UNL1        0.1480
     19 N         142.1177  137.7422  158.7490 N.ar    1  UNL1       -0.2236
     20 C         142.5276  139.1689  158.9647 C.ar    1  UNL1        0.1345
     21 C         142.3134  140.1125  160.1108 C.ar    1  UNL1        0.1036
     22 N         142.8510  141.5111  160.0414 N.ar    1  UNL1       -0.2223
     23 C         143.6028  141.9662  158.8258 C.ar    1  UNL1        0.2003
     24 N         143.8170  141.0226  157.6796 N.ar    1  UNL1       -0.2049
     25 C         143.2794  139.6240  157.7490 C.ar    1  UNL1        0.1660
     26 N         143.3342  138.4786  156.7821 N.ar    1  UNL1       -0.2947
     27 C         143.9914  138.4934  155.4339 C.3     1  UNL1        0.1334
     28 C         141.8693  131.9065  154.9134 C.3     1  UNL1        0.0737
     29 C         142.0560  133.2587  155.5350 C.ar    1  UNL1        0.1396
     30 N         143.0929  133.4576  156.6006 N.ar    1  UNL1       -0.2290
     31 C         143.2796  134.8099  157.2223 C.ar    1  UNL1        0.1048
     32 C         142.4295  135.9633  156.7785 C.ar    1  UNL1        0.0725
     33 C         141.3927  135.7644  155.7129 C.ar    1  UNL1        0.1048
     34 N         141.2059  134.4121  155.0912 N.ar    1  UNL1       -0.2290
     35 C         140.1072  141.0545  169.1319 C.3     1  UNL1        0.0768
     36 C         139.9611  142.2639  170.0072 C.3     1  UNL1        0.0096
     37 C         140.3445  140.9444  170.6089 C.3     1  UNL1        0.0096
@<TRIPOS>BOND
     1    28    29    1
     2    29    30   ar
     3    30    31   ar
     4    31    32   ar
     5    32    18    1
     6    18    19   ar
     7    19    20   ar
     8    20    21   ar
     9    21     1    1
    10     1     2   ar
    11     2     3   ar
    12     3     4   ar
    13     4     5   ar
    14     5     6   ar
    15     5     7    1
    16     7     8    1
    17     8     9    1
    18     9    10    1
    19    10    11    1
    20    11    12   am
    21    12    13    2
    22    12    35    1
    23    35    36    1
    24    36    37    1
    25     7    14    1
    26    14    15    2
    27    14    16   am
    28    16    17    1
    29    21    22   ar
    30    22    23   ar
    31    23    24   ar
    32    24    25   ar
    33    25    26   ar
    34    26    27    1
    35    32    33   ar
    36    33    34   ar
    37    34    29   ar
    38    26    18   ar
    39    25    20   ar
    40     6     1   ar
    41    11     7    1
    42    37    35    1
    43    16     4    1
@<TRIPOS>MOLECULE
*****
 37 43 0 0 0
SMALL
GASTEIGER

@<TRIPOS>ATOM
      1 C         143.3717  140.6891  161.2582 C.ar    1  UNL1        0.0191
      2 C         144.1102  139.4315  161.6089 C.ar    1  UNL1        0.0028
      3 C         144.0941  138.9207  163.0192 C.ar    1  UNL1        0.0147
      4 C         143.3395  139.6675  164.0787 C.ar    1  UNL1        0.0519
      5 C         142.6009  140.9252  163.7281 C.ar    1  UNL1        0.0159
      6 C         142.6170  141.4360  162.3179 C.ar    1  UNL1        0.0005
      7 C         141.9495  141.4435  164.9759 C.3     1  UNL1        0.1495
      8 C         141.6136  142.3808  163.8540 C.3     1  UNL1        0.0332
      9 C         140.7545  143.4783  164.4086 C.3     1  UNL1        0.0240
     10 C         140.5595  143.2193  165.8731 C.3     1  UNL1        0.0941
     11 N         141.2980  141.9617  166.2238 N.am    1  UNL1       -0.2715
     12 C         141.3721  141.3327  167.5835 C.2     1  UNL1        0.2256
     13 O         141.7604  140.6657  167.7830 O.2     1  UNL1       -0.2749
     14 C         142.2854  140.5061  166.0978 C.2     1  UNL1        0.2494
     15 O         142.0985  140.4965  166.8726 O.2     1  UNL1       -0.2725
     16 N         143.1444  139.4085  165.5433 N.am    1  UNL1       -0.2556
     17 C         143.7093  138.2546  166.3174 C.3     1  UNL1        0.1201
     18 C         142.6673  138.3933  157.2277 C.ar    1  UNL1        0.1480
     19 N         142.8343  138.7909  158.6644 N.ar    1  UNL1       -0.2236
     20 C         143.1306  140.2607  158.7071 C.ar    1  UNL1        0.1345
     21 C         143.3878  141.1999  159.8480 C.ar    1  UNL1        0.1036
     22 N         143.6612  142.6500  159.5786 N.ar    1  UNL1       -0.2223
     23 C         143.6773  143.1608  158.1684 C.ar    1  UNL1        0.2003
     24 N         143.4200  142.2215  157.0274 N.ar    1  UNL1       -0.2049
     25 C         143.1467  140.7715  157.2968 C.ar    1  UNL1        0.1660
     26 N         142.8604  139.6174  156.3825 N.ar    1  UNL1       -0.2947
     27 C         142.7810  139.6769  154.8858 C.3     1  UNL1        0.1334
     28 C         141.4420  132.8753  155.2150 C.3     1  UNL1        0.0737
     29 C         141.7484  134.2548  155.7182 C.ar    1  UNL1        0.1396
     30 N         140.8563  135.4030  155.3493 N.ar    1  UNL1       -0.2290
     31 C         141.1626  136.7824  155.8525 C.ar    1  UNL1        0.1048
     32 C         142.3610  137.0138  156.7245 C.ar    1  UNL1        0.0725
     33 C         143.2530  135.8657  157.0934 C.ar    1  UNL1        0.1048
     34 N         142.9467  134.4862  156.5902 N.ar    1  UNL1       -0.2290
     35 C         140.6652  141.9687  168.7435 C.3     1  UNL1        0.0768
     36 C         140.3688  143.1786  169.5794 C.3     1  UNL1        0.0096
     37 C         139.7372  141.8605  169.9170 C.3     1  UNL1        0.0096
@<TRIPOS>BOND
     1    28    29    1
     2    29    30   ar
     3    30    31   ar
     4    31    32   ar
     5    32    18    1
     6    18    19   ar
     7    19    20   ar
     8    20    21   ar
     9    21     1    1
    10     1     2   ar
    11     2     3   ar
    12     3     4   ar
    13     4     5   ar
    14     5     6   ar
    15     5     7    1
    16     7     8    1
    17     8     9    1
    18     9    10    1
    19    10    11    1
    20    11    12   am
    21    12    13    2
    22    12    35    1
    23    35    36    1
    24    36    37    1
    25     7    14    1
    26    14    15    2
    27    14    16   am
    28    16    17    1
    29    21    22   ar
    30    22    23   ar
    31    23    24   ar
    32    24    25   ar
    33    25    26   ar
    34    26    27    1
    35    32    33   ar
    36    33    34   ar
    37    34    29   ar
    38    26    18   ar
    39    25    20   ar
    40     6     1   ar
    41    11     7    1
    42    37    35    1
    43    16     4    1
@<TRIPOS>MOLECULE
*****
 37 43 0 0 0
SMALL
GASTEIGER

@<TRIPOS>ATOM
      1 C         140.9068  138.5717  162.1505 C.ar    1  UNL1        0.0191
      2 C         139.6916  137.7349  162.4208 C.ar    1  UNL1        0.0028
      3 C         138.9586  137.8754  163.7221 C.ar    1  UNL1        0.0147
      4 C         139.4408  138.8526  164.7528 C.ar    1  UNL1        0.0519
      5 C         140.6560  139.6894  164.4825 C.ar    1  UNL1        0.0159
      6 C         141.3890  139.5489  163.1813 C.ar    1  UNL1        0.0005
      7 C         140.8939  140.5617  165.6794 C.3     1  UNL1        0.1495
      8 C         141.9621  140.8593  164.6693 C.3     1  UNL1        0.0332
      9 C         142.8601  141.9156  165.2419 C.3     1  UNL1        0.0240
     10 C         142.3469  142.2707  166.6059 C.3     1  UNL1        0.0941
     11 N         141.1317  141.4339  166.8763 N.am    1  UNL1       -0.2715
     12 C         140.3002  141.4641  168.1244 C.2     1  UNL1        0.2256
     13 O         139.6532  141.0255  168.2805 O.2     1  UNL1       -0.2749
     14 C         139.8256  140.2640  166.6895 C.2     1  UNL1        0.2494
     15 O         139.6706  140.5502  167.4171 O.2     1  UNL1       -0.2725
     16 N         138.9276  139.2077  166.1168 N.am    1  UNL1       -0.2556
     17 C         137.7271  138.6113  166.7900 C.3     1  UNL1        0.1201
     18 C         141.2908  141.5937  158.5823 C.ar    1  UNL1        0.1480
     19 N         140.9623  140.9000  159.8710 N.ar    1  UNL1       -0.2236
     20 C         141.6167  139.5505  159.8510 C.ar    1  UNL1        0.1345
     21 C         141.6398  138.4313  160.8494 C.ar    1  UNL1        0.1036
     22 N         142.3960  137.1717  160.5467 N.ar    1  UNL1       -0.2223
     23 C         143.1290  137.0313  159.2455 C.ar    1  UNL1        0.2003
     24 N         143.1058  138.1505  158.2471 N.ar    1  UNL1       -0.2049
     25 C         142.3497  139.4101  158.5498 C.ar    1  UNL1        0.1660
     26 N         142.1483  140.6728  157.7657 N.ar    1  UNL1       -0.2947
     27 C         142.7064  140.9637  156.4041 C.3     1  UNL1        0.1334
     28 C         139.4911  147.0872  156.9755 C.3     1  UNL1        0.0737
     29 C         139.9410  145.7139  157.3772 C.ar    1  UNL1        0.1396
     30 N         140.9756  145.5476  158.4506 N.ar    1  UNL1       -0.2290
     31 C         141.4255  144.1742  158.8523 C.ar    1  UNL1        0.1048
     32 C         140.8409  142.9671  158.1806 C.ar    1  UNL1        0.0725
     33 C         139.8064  143.1333  157.1072 C.ar    1  UNL1        0.1048
     34 N         139.3564  144.5068  156.7055 N.ar    1  UNL1       -0.2290
     35 C         140.6622  142.3939  169.2444 C.3     1  UNL1        0.0768
     36 C         141.1902  142.6137  170.6312 C.3     1  UNL1        0.0096
     37 C         140.7612  143.7847  169.7976 C.3     1  UNL1        0.0096
@<TRIPOS>BOND
     1    28    29    1
     2    29    30   ar
     3    30    31   ar
     4    31    32   ar
     5    32    18    1
     6    18    19   ar
     7    19    20   ar
     8    20    21   ar
     9    21     1    1
    10     1     2   ar
    11     2     3   ar
    12     3     4   ar
    13     4     5   ar
    14     5     6   ar
    15     5     7    1
    16     7     8    1
    17     8     9    1
    18     9    10    1
    19    10    11    1
    20    11    12   am
    21    12    13    2
    22    12    35    1
    23    35    36    1
    24    36    37    1
    25     7    14    1
    26    14    15    2
    27    14    16   am
    28    16    17    1
    29    21    22   ar
    30    22    23   ar
    31    23    24   ar
    32    24    25   ar
    33    25    26   ar
    34    26    27    1
    35    32    33   ar
    36    33    34   ar
    37    34    29   ar
    38    26    18   ar
    39    25    20   ar
    40     6     1   ar
    41    11     7    1
    42    37    35    1
    43    16     4    1
@<TRIPOS>MOLECULE
*****
 37 43 0 0 0
SMALL
GASTEIGER

@<TRIPOS>ATOM
      1 C         141.9400  141.1911  160.0819 C.ar    1  UNL1        0.0191
      2 C         140.5366  140.7224  159.8354 C.ar    1  UNL1        0.0028
      3 C         139.5525  140.6740  160.9664 C.ar    1  UNL1        0.0147
      4 C         139.9718  141.0942  162.3439 C.ar    1  UNL1        0.0519
      5 C         141.3752  141.5629  162.5905 C.ar    1  UNL1        0.0159
      6 C         142.3593  141.6114  161.4595 C.ar    1  UNL1        0.0005
      7 C         141.4988  141.9119  164.0441 C.3     1  UNL1        0.1495
      8 C         142.8258  142.1649  163.3923 C.3     1  UNL1        0.0332
      9 C         143.7695  142.6703  164.4430 C.3     1  UNL1        0.0240
     10 C         143.0257  142.7296  165.7443 C.3     1  UNL1        0.0941
     11 N         141.6222  142.2609  165.4977 N.am    1  UNL1       -0.2715
     12 C         140.5335  142.1591  166.5245 C.2     1  UNL1        0.2256
     13 O         139.7848  141.9120  166.4069 O.2     1  UNL1       -0.2749
     14 C         140.1716  141.6589  164.6960 C.2     1  UNL1        0.2494
     15 O         139.9088  141.7418  165.4439 O.2     1  UNL1       -0.2725
     16 N         139.2280  141.1535  163.6452 N.am    1  UNL1       -0.2556
     17 C         137.7925  140.7741  163.8582 C.3     1  UNL1        0.1201
     18 C         142.9045  137.9753  156.8046 C.ar    1  UNL1        0.1480
     19 N         142.3537  138.7458  157.9678 N.ar    1  UNL1       -0.2236
     20 C         143.0547  140.0709  158.0199 C.ar    1  UNL1        0.1345
     21 C         142.9242  141.2396  158.9510 C.ar    1  UNL1        0.1036
     22 N         143.7777  142.4567  158.7511 N.ar    1  UNL1       -0.2223
     23 C         144.7618  142.5052  157.6202 C.ar    1  UNL1        0.2003
     24 N         144.8924  141.3364  156.6890 N.ar    1  UNL1       -0.2049
     25 C         144.0389  140.1193  156.8888 C.ar    1  UNL1        0.1660
     26 N         143.9461  138.8242  156.1378 N.ar    1  UNL1       -0.2947
     27 C         144.7530  138.4446  154.9317 C.3     1  UNL1        0.1334
     28 C         141.2349  132.4654  155.1157 C.3     1  UNL1        0.0737
     29 C         141.6523  133.8428  155.5380 C.ar    1  UNL1        0.1396
     30 N         142.7070  134.0174  156.5903 N.ar    1  UNL1       -0.2290
     31 C         143.1244  135.3949  157.0125 C.ar    1  UNL1        0.1048
     32 C         142.4871  136.5978  156.3824 C.ar    1  UNL1        0.0725
     33 C         141.4325  136.4233  155.3302 C.ar    1  UNL1        0.1048
     34 N         141.0151  135.0457  154.9079 N.ar    1  UNL1       -0.2290
     35 C         140.8064  142.5458  167.9478 C.3     1  UNL1        0.0768
     36 C         141.6327  142.4177  169.1933 C.3     1  UNL1        0.0096
     37 C         140.4528  143.3437  169.1678 C.3     1  UNL1        0.0096
@<TRIPOS>BOND
     1    28    29    1
     2    29    30   ar
     3    30    31   ar
     4    31    32   ar
     5    32    18    1
     6    18    19   ar
     7    19    20   ar
     8    20    21   ar
     9    21     1    1
    10     1     2   ar
    11     2     3   ar
    12     3     4   ar
    13     4     5   ar
    14     5     6   ar
    15     5     7    1
    16     7     8    1
    17     8     9    1
    18     9    10    1
    19    10    11    1
    20    11    12   am
    21    12    13    2
    22    12    35    1
    23    35    36    1
    24    36    37    1
    25     7    14    1
    26    14    15    2
    27    14    16   am
    28    16    17    1
    29    21    22   ar
    30    22    23   ar
    31    23    24   ar
    32    24    25   ar
    33    25    26   ar
    34    26    27    1
    35    32    33   ar
    36    33    34   ar
    37    34    29   ar
    38    26    18   ar
    39    25    20   ar
    40     6     1   ar
    41    11     7    1
    42    37    35    1
    43    16     4    1
@<TRIPOS>MOLECULE
*****
 37 43 0 0 0
SMALL
GASTEIGER

@<TRIPOS>ATOM
      1 C         141.1613  139.6790  161.9854 C.ar    1  UNL1        0.0191
      2 C         142.0455  138.4709  162.0783 C.ar    1  UNL1        0.0028
      3 C         142.7325  138.1420  163.3706 C.ar    1  UNL1        0.0147
      4 C         142.5353  139.0210  164.5698 C.ar    1  UNL1        0.0519
      5 C         141.6510  140.2291  164.4769 C.ar    1  UNL1        0.0159
      6 C         140.9640  140.5581  163.1847 C.ar    1  UNL1        0.0005
      7 C         141.6467  140.9046  165.8162 C.3     1  UNL1        0.1495
      8 C         140.7651  141.6952  164.8955 C.3     1  UNL1        0.0332
      9 C         140.2159  142.8592  165.6659 C.3     1  UNL1        0.0240
     10 C         140.7581  142.7880  167.0627 C.3     1  UNL1        0.0941
     11 N         141.6424  141.5799  167.1556 N.am    1  UNL1       -0.2715
     12 C         142.3909  141.1268  168.3739 C.2     1  UNL1        0.2256
     13 O         142.8633  140.4878  168.4366 O.2     1  UNL1       -0.2749
     14 C         142.5283  140.1138  166.7369 C.2     1  UNL1        0.2494
     15 O         142.7347  140.2032  167.5017 O.2     1  UNL1       -0.2725
     16 N         143.0775  138.9498  165.9666 N.am    1  UNL1       -0.2556
     17 C         144.0058  137.8990  166.4994 C.3     1  UNL1        0.1201
     18 C         142.9896  140.9254  157.8483 C.ar    1  UNL1        0.1480
     19 N         142.7627  140.5154  159.2732 N.ar    1  UNL1       -0.2236
     20 C         141.2840  140.3844  159.4880 C.ar    1  UNL1        0.1345
     21 C         140.4742  140.0080  160.6932 C.ar    1  UNL1        0.1036
     22 N         138.9775  139.9606  160.6063 N.ar    1  UNL1       -0.2223
     23 C         138.2905  140.2896  159.3141 C.ar    1  UNL1        0.2003
     24 N         139.1002  140.6660  158.1088 N.ar    1  UNL1       -0.2049
     25 C         140.5970  140.7134  158.1957 C.ar    1  UNL1        0.1660
     26 N         141.6510  141.0478  157.1824 N.ar    1  UNL1       -0.2947
     27 C         141.4092  141.4363  155.7539 C.3     1  UNL1        0.1334
     28 C         148.3161  141.9042  155.2656 C.3     1  UNL1        0.0737
     29 C         146.9845  141.6595  155.9112 C.ar    1  UNL1        0.1396
     30 N         146.1149  140.5343  155.4338 N.ar    1  UNL1       -0.2290
     31 C         144.7833  140.2897  156.0795 C.ar    1  UNL1        0.1048
     32 C         144.3212  141.1701  157.2026 C.ar    1  UNL1        0.0725
     33 C         145.1907  142.2952  157.6800 C.ar    1  UNL1        0.1048
     34 N         146.5224  142.5400  157.0343 N.ar    1  UNL1       -0.2290
     35 C         142.2895  141.9083  169.6502 C.3     1  UNL1        0.0768
     36 C         142.5847  143.1482  170.4412 C.3     1  UNL1        0.0096
     37 C         141.8189  142.0220  171.0699 C.3     1  UNL1        0.0096
@<TRIPOS>BOND
     1    28    29    1
     2    29    30   ar
     3    30    31   ar
     4    31    32   ar
     5    32    18    1
     6    18    19   ar
     7    19    20   ar
     8    20    21   ar
     9    21     1    1
    10     1     2   ar
    11     2     3   ar
    12     3     4   ar
    13     4     5   ar
    14     5     6   ar
    15     5     7    1
    16     7     8    1
    17     8     9    1
    18     9    10    1
    19    10    11    1
    20    11    12   am
    21    12    13    2
    22    12    35    1
    23    35    36    1
    24    36    37    1
    25     7    14    1
    26    14    15    2
    27    14    16   am
    28    16    17    1
    29    21    22   ar
    30    22    23   ar
    31    23    24   ar
    32    24    25   ar
    33    25    26   ar
    34    26    27    1
    35    32    33   ar
    36    33    34   ar
    37    34    29   ar
    38    26    18   ar
    39    25    20   ar
    40     6     1   ar
    41    11     7    1
    42    37    35    1
    43    16     4    1
@<TRIPOS>MOLECULE
*****
 37 43 0 0 0
SMALL
GASTEIGER

@<TRIPOS>ATOM
      1 C         142.5827  140.6861  159.3430 C.ar    1  UNL1        0.0191
      2 C         143.7646  141.2492  160.0751 C.ar    1  UNL1        0.0028
      3 C         143.8050  141.2131  161.5741 C.ar    1  UNL1        0.0147
      4 C         142.6637  140.6139  162.3410 C.ar    1  UNL1        0.0519
      5 C         141.4818  140.0508  161.6089 C.ar    1  UNL1        0.0159
      6 C         141.4412  140.0869  160.1099 C.ar    1  UNL1        0.0005
      7 C         140.5120  139.5279  162.6268 C.3     1  UNL1        0.1495
      8 C         139.9294  139.2880  161.2656 C.3     1  UNL1        0.0332
      9 C         138.5996  138.6168  161.4423 C.3     1  UNL1        0.0240
     10 C         138.3603  138.4420  162.9127 C.3     1  UNL1        0.0941
     11 N         139.5422  139.0051  163.6448 N.am    1  UNL1       -0.2715
     12 C         139.7228  139.0393  165.1335 C.2     1  UNL1        0.2256
     13 O         140.3449  139.3351  165.5346 O.2     1  UNL1       -0.2749
     14 C         141.0946  139.7679  163.9881 C.2     1  UNL1        0.2494
     15 O         140.8358  139.6109  164.7256 O.2     1  UNL1       -0.2725
     16 N         142.4244  140.4391  163.8114 N.am    1  UNL1       -0.2556
     17 C         143.3520  140.8613  164.9120 C.3     1  UNL1        0.1201
     18 C         142.5346  137.1522  156.2573 C.ar    1  UNL1        0.1480
     19 N         142.5594  138.0044  157.4915 N.ar    1  UNL1       -0.2236
     20 C         142.5338  139.4416  157.0629 C.ar    1  UNL1        0.1345
     21 C         142.5421  140.7222  157.8440 C.ar    1  UNL1        0.1036
     22 N         142.5100  142.0388  157.1260 N.ar    1  UNL1       -0.2223
     23 C         142.4695  142.0749  155.6270 C.ar    1  UNL1        0.2003
     24 N         142.4611  140.7943  154.8459 N.ar    1  UNL1       -0.2049
     25 C         142.4933  139.4777  155.5639 C.ar    1  UNL1        0.1660
     26 N         142.4938  138.0628  155.0659 N.ar    1  UNL1       -0.2947
     27 C         142.4595  137.6337  153.6291 C.3     1  UNL1        0.1334
     28 C         142.5895  131.1542  156.1114 C.3     1  UNL1        0.0737
     29 C         142.5758  132.6537  156.1479 C.ar    1  UNL1        0.1396
     30 N         143.6965  133.3981  156.8112 N.ar    1  UNL1       -0.2290
     31 C         143.6828  134.8976  156.8476 C.ar    1  UNL1        0.1048
     32 C         142.5484  135.6527  156.2208 C.ar    1  UNL1        0.0725
     33 C         141.4277  134.9084  155.5575 C.ar    1  UNL1        0.1048
     34 N         141.4414  133.4088  155.5211 N.ar    1  UNL1       -0.2290
     35 C         138.6614  138.4752  166.0309 C.3     1  UNL1        0.0768
     36 C         137.7506  137.3472  166.4160 C.3     1  UNL1        0.0096
     37 C         137.7338  138.6261  167.2000 C.3     1  UNL1        0.0096
@<TRIPOS>BOND
     1    28    29    1
     2    29    30   ar
     3    30    31   ar
     4    31    32   ar
     5    32    18    1
     6    18    19   ar
     7    19    20   ar
     8    20    21   ar
     9    21     1    1
    10     1     2   ar
    11     2     3   ar
    12     3     4   ar
    13     4     5   ar
    14     5     6   ar
    15     5     7    1
    16     7     8    1
    17     8     9    1
    18     9    10    1
    19    10    11    1
    20    11    12   am
    21    12    13    2
    22    12    35    1
    23    35    36    1
    24    36    37    1
    25     7    14    1
    26    14    15    2
    27    14    16   am
    28    16    17    1
    29    21    22   ar
    30    22    23   ar
    31    23    24   ar
    32    24    25   ar
    33    25    26   ar
    34    26    27    1
    35    32    33   ar
    36    33    34   ar
    37    34    29   ar
    38    26    18   ar
    39    25    20   ar
    40     6     1   ar
    41    11     7    1
    42    37    35    1
    43    16     4    1
