@<TRIPOS>MOLECULE
*****
 31 34 0 0 0
SMALL
GASTEIGER

@<TRIPOS>ATOM
      1 N         138.8282  139.5688  166.8005 N.ar    1  UNL1       -0.1928
      2 N         137.9422  139.0934  167.9137 N.ar    1  UNL1       -0.0582
      3 N         138.5202  139.5844  169.2079 N.ar    1  UNL1       -0.1268
      4 C         139.7634  140.3631  168.8946 C.ar    1  UNL1        0.1411
      5 C         140.7466  141.0797  169.7719 C.ar    1  UNL1        0.0383
      6 C         141.9203  141.7867  169.1614 C.ar    1  UNL1        0.0906
      7 CL        142.9035  142.5033  170.0387 Cl      1  UNL1       -0.0793
      8 C         142.1107  141.7770  167.6735 C.ar    1  UNL1        0.1409
      9 N         141.1273  141.0604  166.7962 N.ar    1  UNL1       -0.2096
     10 C         139.9537  140.3534  167.4068 C.ar    1  UNL1        0.1860
     11 C         137.8600  140.1164  162.9910 C.ar    1  UNL1        0.1483
     12 C         138.2171  138.7793  162.4127 C.ar    1  UNL1        0.0373
     13 C         138.7779  137.7052  163.2969 C.ar    1  UNL1        0.0047
     14 C         138.9816  137.9685  164.7596 C.ar    1  UNL1        0.0195
     15 C         138.6245  139.3056  165.3379 C.ar    1  UNL1        0.0891
     16 C         138.0637  140.3796  164.4536 C.ar    1  UNL1        0.0564
     17 O         137.2992  141.1904  162.1067 O.3     1  UNL1       -0.4044
     18 F         138.8952  143.6720  161.5640 F       1  UNL1       -0.1328
     19 C         138.0972  142.4312  161.8354 C.3     1  UNL1        0.5753
     20 F         138.9241  141.6804  160.8341 F       1  UNL1       -0.1328
     21 F         137.2703  143.1820  162.8366 F       1  UNL1       -0.1328
     22 N         143.2843  142.4840  167.0630 N.pl3   1  UNL1       -0.3174
     23 H         143.7653  143.1730  167.5760 H       1  UNL1        0.1482
     24 C         143.7251  142.1412  165.6708 C.3     1  UNL1        0.0882
     25 C         143.4653  143.0977  164.5450 C.3     1  UNL1        0.0223
     26 C         144.4944  143.2887  163.4705 C.3     1  UNL1        0.0188
     27 C         144.2345  144.2452  162.3446 C.3     1  UNL1        0.0686
     28 N         142.9456  145.0107  162.2932 N.3     1  UNL1       -0.2975
     29 C         141.9165  144.8197  163.3677 C.3     1  UNL1        0.0686
     30 C         142.1763  143.8632  164.4935 C.3     1  UNL1        0.0188
     31 H         142.4962  144.7717  161.4093 H       1  UNL1        0.1232
@<TRIPOS>BOND
     1    18    19    1
     2    19    20    1
     3    19    21    1
     4    19    17    1
     5    17    11    1
     6    11    12   ar
     7    12    13   ar
     8    13    14   ar
     9    14    15   ar
    10    15     1    1
    11     1     2   ar
    12     2     3   ar
    13     3     4   ar
    14     4     5   ar
    15     5     6   ar
    16     6     7    1
    17     6     8   ar
    18     8    22    1
    19    22    24    1
    20    24    25    1
    21    25    26    1
    22    26    27    1
    23    27    28    1
    24    28    29    1
    25    29    30    1
    26     8     9   ar
    27     9    10   ar
    28    15    16   ar
    29    16    11   ar
    30    10     1   ar
    31    10     4   ar
    32    30    25    1
    33    22    23    1
    34    28    31    1
@<TRIPOS>MOLECULE
*****
 31 34 0 0 0
SMALL
GASTEIGER

@<TRIPOS>ATOM
      1 N         143.4850  142.5535  162.3546 N.ar    1  UNL1       -0.1928
      2 N         144.9347  142.6089  161.9735 N.ar    1  UNL1       -0.0582
      3 N         145.6578  141.5455  162.7456 N.ar    1  UNL1       -0.1268
      4 C         144.6551  140.8328  163.6038 C.ar    1  UNL1        0.1411
      5 C         144.7913  139.6971  164.5741 C.ar    1  UNL1        0.0383
      6 C         143.5845  139.1843  165.3028 C.ar    1  UNL1        0.0906
      7 CL        143.7208  138.0486  166.2731 Cl      1  UNL1       -0.0793
      8 C         142.2416  139.8073  165.0611 C.ar    1  UNL1        0.1409
      9 N         142.1054  140.9431  164.0908 N.ar    1  UNL1       -0.2096
     10 C         143.3121  141.4558  163.3622 C.ar    1  UNL1        0.1860
     11 C         140.2716  144.8784  162.2171 C.ar    1  UNL1        0.1483
     12 C         140.2263  145.2133  160.7557 C.ar    1  UNL1        0.0373
     13 C         141.2672  144.6617  159.8272 C.ar    1  UNL1        0.0047
     14 C         142.3535  143.7751  160.3602 C.ar    1  UNL1        0.0195
     15 C         142.3987  143.4401  161.8216 C.ar    1  UNL1        0.0891
     16 C         141.3578  143.9918  162.7501 C.ar    1  UNL1        0.0564
     17 O         139.2306  145.4300  163.1455 O.3     1  UNL1       -0.4044
     18 F         137.5503  143.5679  164.7915 F       1  UNL1       -0.1328
     19 C         138.3905  144.4990  163.9685 C.3     1  UNL1        0.5753
     20 F         137.7873  143.9360  162.7158 F       1  UNL1       -0.1328
     21 F         138.9937  145.0619  165.2212 F       1  UNL1       -0.1328
     22 N         141.0349  139.2946  165.7898 N.pl3   1  UNL1       -0.3174
     23 H         140.8477  139.5988  166.7072 H       1  UNL1        0.1482
     24 C         140.1133  138.3184  165.1206 C.3     1  UNL1        0.0882
     25 C         139.1911  138.7824  164.0325 C.3     1  UNL1        0.0223
     26 C         138.5930  140.1567  164.0916 C.3     1  UNL1        0.0188
     27 C         137.6707  140.6208  163.0034 C.3     1  UNL1        0.0686
     28 N         137.3466  139.7106  161.8561 N.3     1  UNL1       -0.2975
     29 C         137.9448  138.3362  161.7969 C.3     1  UNL1        0.0686
     30 C         138.8670  137.8722  162.8851 C.3     1  UNL1        0.0188
     31 H         137.6355  140.1942  161.0058 H       1  UNL1        0.1232
@<TRIPOS>BOND
     1    18    19    1
     2    19    20    1
     3    19    21    1
     4    19    17    1
     5    17    11    1
     6    11    12   ar
     7    12    13   ar
     8    13    14   ar
     9    14    15   ar
    10    15     1    1
    11     1     2   ar
    12     2     3   ar
    13     3     4   ar
    14     4     5   ar
    15     5     6   ar
    16     6     7    1
    17     6     8   ar
    18     8    22    1
    19    22    24    1
    20    24    25    1
    21    25    26    1
    22    26    27    1
    23    27    28    1
    24    28    29    1
    25    29    30    1
    26     8     9   ar
    27     9    10   ar
    28    15    16   ar
    29    16    11   ar
    30    10     1   ar
    31    10     4   ar
    32    30    25    1
    33    22    23    1
    34    28    31    1
@<TRIPOS>MOLECULE
*****
 31 34 0 0 0
SMALL
GASTEIGER

@<TRIPOS>ATOM
      1 N         142.1350  139.1728  163.3952 N.ar    1  UNL1       -0.1928
      2 N         141.9257  138.1293  162.3382 N.ar    1  UNL1       -0.0582
      3 N         140.7004  137.3430  162.6993 N.ar    1  UNL1       -0.1268
      4 C         140.1524  137.9006  163.9795 C.ar    1  UNL1        0.1411
      5 C         138.9606  137.5246  164.8091 C.ar    1  UNL1        0.0383
      6 C         138.6554  138.2796  166.0689 C.ar    1  UNL1        0.0906
      7 CL        137.4636  137.9037  166.8984 Cl      1  UNL1       -0.0793
      8 C         139.5420  139.4105  166.4990 C.ar    1  UNL1        0.1409
      9 N         140.7339  139.7864  165.6693 N.ar    1  UNL1       -0.2096
     10 C         141.0390  139.0315  164.4096 C.ar    1  UNL1        0.1860
     11 C         144.1147  142.5877  162.9839 C.ar    1  UNL1        0.1483
     12 C         145.4660  142.1965  163.5043 C.ar    1  UNL1        0.0373
     13 C         145.7070  140.7973  163.9882 C.ar    1  UNL1        0.0047
     14 C         144.5967  139.7895  163.9519 C.ar    1  UNL1        0.0195
     15 C         143.2453  140.1807  163.4316 C.ar    1  UNL1        0.0891
     16 C         143.0043  141.5798  162.9476 C.ar    1  UNL1        0.0564
     17 O         143.8736  143.9869  162.4999 O.3     1  UNL1       -0.4044
     18 F         142.0534  145.8123  164.0345 F       1  UNL1       -0.1328
     19 C         142.9635  144.8996  163.2672 C.3     1  UNL1        0.5753
     20 F         141.9020  144.7191  162.2229 F       1  UNL1       -0.1328
     21 F         144.0250  145.0801  164.3116 F       1  UNL1       -0.1328
     22 N         139.2369  140.1654  167.7587 N.pl3   1  UNL1       -0.3174
     23 H         138.4325  140.7307  167.8112 H       1  UNL1        0.1482
     24 C         140.1572  140.0592  168.9384 C.3     1  UNL1        0.0882
     25 C         140.9126  141.2656  169.4114 C.3     1  UNL1        0.0223
     26 C         140.1955  142.5674  169.6147 C.3     1  UNL1        0.0188
     27 C         140.9509  143.7739  170.0877 C.3     1  UNL1        0.0686
     28 N         142.4234  143.6787  170.3574 N.3     1  UNL1       -0.2975
     29 C         143.1405  142.3769  170.1541 C.3     1  UNL1        0.0686
     30 C         142.3851  141.1705  169.6811 C.3     1  UNL1        0.0188
     31 H         142.5616  143.9417  171.3332 H       1  UNL1        0.1232
@<TRIPOS>BOND
     1    18    19    1
     2    19    20    1
     3    19    21    1
     4    19    17    1
     5    17    11    1
     6    11    12   ar
     7    12    13   ar
     8    13    14   ar
     9    14    15   ar
    10    15     1    1
    11     1     2   ar
    12     2     3   ar
    13     3     4   ar
    14     4     5   ar
    15     5     6   ar
    16     6     7    1
    17     6     8   ar
    18     8    22    1
    19    22    24    1
    20    24    25    1
    21    25    26    1
    22    26    27    1
    23    27    28    1
    24    28    29    1
    25    29    30    1
    26     8     9   ar
    27     9    10   ar
    28    15    16   ar
    29    16    11   ar
    30    10     1   ar
    31    10     4   ar
    32    30    25    1
    33    22    23    1
    34    28    31    1
@<TRIPOS>MOLECULE
*****
 31 34 0 0 0
SMALL
GASTEIGER

@<TRIPOS>ATOM
      1 N         143.2889  142.1334  165.1309 N.ar    1  UNL1       -0.1928
      2 N         144.5329  142.0845  164.2942 N.ar    1  UNL1       -0.0582
      3 N         144.3694  143.0563  163.1634 N.ar    1  UNL1       -0.1268
      4 C         143.0243  143.7058  163.3011 C.ar    1  UNL1        0.1411
      5 C         142.3214  144.7429  162.4764 C.ar    1  UNL1        0.0383
      6 C         140.9505  145.2096  162.8676 C.ar    1  UNL1        0.0906
      7 CL        140.2476  146.2468  162.0429 Cl      1  UNL1       -0.0793
      8 C         140.2827  144.6392  164.0836 C.ar    1  UNL1        0.1409
      9 N         140.9857  143.6021  164.9084 N.ar    1  UNL1       -0.2096
     10 C         142.3565  143.1354  164.5171 C.ar    1  UNL1        0.1860
     11 C         142.3303  141.1916  168.8651 C.ar    1  UNL1        0.1483
     12 C         142.4933  139.7009  168.8323 C.ar    1  UNL1        0.0373
     13 C         142.9216  139.0209  167.5657 C.ar    1  UNL1        0.0047
     14 C         143.1868  139.8318  166.3319 C.ar    1  UNL1        0.0195
     15 C         143.0237  141.3226  166.3647 C.ar    1  UNL1        0.0891
     16 C         142.5954  142.0025  167.6313 C.ar    1  UNL1        0.0564
     17 O         141.9020  141.8715  170.1317 O.3     1  UNL1       -0.4044
     18 F         140.6822  144.6103  170.0254 F       1  UNL1       -0.1328
     19 C         141.2921  143.2409  170.0785 C.3     1  UNL1        0.5753
     20 F         139.9859  142.6424  169.6475 F       1  UNL1       -0.1328
     21 F         142.5982  143.8394  170.5096 F       1  UNL1       -0.1328
     22 N         138.9119  145.1059  164.4749 N.pl3   1  UNL1       -0.3174
     23 H         138.7523  146.0582  164.6669 H       1  UNL1        0.1482
     24 C         137.7843  144.1217  164.5736 C.3     1  UNL1        0.0882
     25 C         137.8658  142.8123  163.8464 C.3     1  UNL1        0.0223
     26 C         137.9946  141.5325  164.6181 C.3     1  UNL1        0.0188
     27 C         138.0762  140.2231  163.8907 C.3     1  UNL1        0.0686
     28 N         138.0288  140.1936  162.3918 N.3     1  UNL1       -0.2975
     29 C         137.9000  141.4734  161.6201 C.3     1  UNL1        0.0686
     30 C         137.8185  142.7827  162.3474 C.3     1  UNL1        0.0188
     31 H         137.2312  139.6126  162.1338 H       1  UNL1        0.1232
@<TRIPOS>BOND
     1    18    19    1
     2    19    20    1
     3    19    21    1
     4    19    17    1
     5    17    11    1
     6    11    12   ar
     7    12    13   ar
     8    13    14   ar
     9    14    15   ar
    10    15     1    1
    11     1     2   ar
    12     2     3   ar
    13     3     4   ar
    14     4     5   ar
    15     5     6   ar
    16     6     7    1
    17     6     8   ar
    18     8    22    1
    19    22    24    1
    20    24    25    1
    21    25    26    1
    22    26    27    1
    23    27    28    1
    24    28    29    1
    25    29    30    1
    26     8     9   ar
    27     9    10   ar
    28    15    16   ar
    29    16    11   ar
    30    10     1   ar
    31    10     4   ar
    32    30    25    1
    33    22    23    1
    34    28    31    1
@<TRIPOS>MOLECULE
*****
 31 34 0 0 0
SMALL
GASTEIGER

@<TRIPOS>ATOM
      1 N         143.4534  142.5349  162.6622 N.ar    1  UNL1       -0.1928
      2 N         144.8386  142.5161  162.0870 N.ar    1  UNL1       -0.0582
      3 N         145.5970  141.3997  162.7416 N.ar    1  UNL1       -0.1268
      4 C         144.6806  140.7287  163.7214 C.ar    1  UNL1        0.1411
      5 C         144.8814  139.5694  164.6518 C.ar    1  UNL1        0.0383
      6 C         143.7572  139.1117  165.5332 C.ar    1  UNL1        0.0906
      7 CL        143.9580  137.9524  166.4637 Cl      1  UNL1       -0.0793
      8 C         142.4323  139.8133  165.4841 C.ar    1  UNL1        0.1409
      9 N         142.2316  140.9726  164.5536 N.ar    1  UNL1       -0.2096
     10 C         143.3557  141.4303  163.6723 C.ar    1  UNL1        0.1860
     11 C         140.2386  144.8450  162.9432 C.ar    1  UNL1        0.1483
     12 C         140.1674  145.4022  161.5524 C.ar    1  UNL1        0.0373
     13 C         141.1915  145.0036  160.5314 C.ar    1  UNL1        0.0047
     14 C         142.2868  144.0478  160.9014 C.ar    1  UNL1        0.0195
     15 C         142.3580  143.4907  162.2923 C.ar    1  UNL1        0.0891
     16 C         141.3339  143.8893  163.3132 C.ar    1  UNL1        0.0564
     17 O         139.2145  145.2436  163.9641 O.3     1  UNL1       -0.4044
     18 F         137.2299  143.2283  164.9641 F       1  UNL1       -0.1328
     19 C         138.2222  144.2360  164.4641 C.3     1  UNL1        0.5753
     20 F         139.0023  144.0998  165.7380 F       1  UNL1       -0.1328
     21 F         137.4421  144.3721  163.1902 F       1  UNL1       -0.1328
     22 N         141.3082  139.3557  166.3655 N.pl3   1  UNL1       -0.3174
     23 H         141.0068  138.4190  166.3325 H       1  UNL1        0.1482
     24 C         140.6432  140.3251  167.2971 C.3     1  UNL1        0.0882
     25 C         141.1275  140.4598  168.7103 C.3     1  UNL1        0.0223
     26 C         140.4016  141.3555  169.6698 C.3     1  UNL1        0.0188
     27 C         140.8861  141.4902  171.0831 C.3     1  UNL1        0.0686
     28 N         142.0964  140.7290  171.5368 N.3     1  UNL1       -0.2975
     29 C         142.8223  139.8333  170.5773 C.3     1  UNL1        0.0686
     30 C         142.3379  139.6986  169.1641 C.3     1  UNL1        0.0188
     31 H         141.8007  140.1448  172.3189 H       1  UNL1        0.1232
@<TRIPOS>BOND
     1    18    19    1
     2    19    20    1
     3    19    21    1
     4    19    17    1
     5    17    11    1
     6    11    12   ar
     7    12    13   ar
     8    13    14   ar
     9    14    15   ar
    10    15     1    1
    11     1     2   ar
    12     2     3   ar
    13     3     4   ar
    14     4     5   ar
    15     5     6   ar
    16     6     7    1
    17     6     8   ar
    18     8    22    1
    19    22    24    1
    20    24    25    1
    21    25    26    1
    22    26    27    1
    23    27    28    1
    24    28    29    1
    25    29    30    1
    26     8     9   ar
    27     9    10   ar
    28    15    16   ar
    29    16    11   ar
    30    10     1   ar
    31    10     4   ar
    32    30    25    1
    33    22    23    1
    34    28    31    1
@<TRIPOS>MOLECULE
*****
 31 34 0 0 0
SMALL
GASTEIGER

@<TRIPOS>ATOM
      1 N         139.7892  141.2431  165.2699 N.ar    1  UNL1       -0.1928
      2 N         138.3643  140.8013  165.1135 N.ar    1  UNL1       -0.0582
      3 N         137.6638  141.7970  164.2372 N.ar    1  UNL1       -0.1268
      4 C         138.6558  142.8542  163.8520 C.ar    1  UNL1        0.1411
      5 C         138.5327  144.0844  163.0026 C.ar    1  UNL1        0.0383
      6 C         139.7232  144.9722  162.7914 C.ar    1  UNL1        0.0906
      7 CL        139.6000  146.2024  161.9420 Cl      1  UNL1       -0.0793
      8 C         141.0367  144.6299  163.4296 C.ar    1  UNL1        0.1409
      9 N         141.1598  143.3997  164.2791 N.ar    1  UNL1       -0.2096
     10 C         139.9694  142.5119  164.4903 C.ar    1  UNL1        0.1860
     11 C         142.1325  140.2029  168.2992 C.ar    1  UNL1        0.1483
     12 C         142.9658  139.1328  167.6586 C.ar    1  UNL1        0.0373
     13 C         142.7402  138.7660  166.2217 C.ar    1  UNL1        0.0047
     14 C         141.6813  139.4695  165.4255 C.ar    1  UNL1        0.0195
     15 C         140.8480  140.5397  166.0661 C.ar    1  UNL1        0.0891
     16 C         141.0736  140.9064  167.5030 C.ar    1  UNL1        0.0564
     17 O         142.3582  140.5696  169.7360 O.3     1  UNL1       -0.4044
     18 F         142.7828  143.4387  170.5031 F       1  UNL1       -0.1328
     19 C         142.5705  142.0042  170.1196 C.3     1  UNL1        0.5753
     20 F         143.7254  142.0881  169.1661 F       1  UNL1       -0.1328
     21 F         141.4156  141.9202  171.0730 F       1  UNL1       -0.1328
     22 N         142.2272  145.5177  163.2185 N.pl3   1  UNL1       -0.3174
     23 H         142.1314  146.3579  162.7143 H       1  UNL1        0.1482
     24 C         143.5635  145.1254  163.7755 C.3     1  UNL1        0.0882
     25 C         144.2005  143.8335  163.3570 C.3     1  UNL1        0.0223
     26 C         144.2127  143.4373  161.9104 C.3     1  UNL1        0.0188
     27 C         144.8498  142.1453  161.4920 C.3     1  UNL1        0.0686
     28 N         145.4747  141.2496  162.5202 N.3     1  UNL1       -0.2975
     29 C         145.4625  141.6459  163.9669 C.3     1  UNL1        0.0686
     30 C         144.8255  142.9378  164.3853 C.3     1  UNL1        0.0188
     31 H         146.4527  141.1341  162.2548 H       1  UNL1        0.1232
@<TRIPOS>BOND
     1    18    19    1
     2    19    20    1
     3    19    21    1
     4    19    17    1
     5    17    11    1
     6    11    12   ar
     7    12    13   ar
     8    13    14   ar
     9    14    15   ar
    10    15     1    1
    11     1     2   ar
    12     2     3   ar
    13     3     4   ar
    14     4     5   ar
    15     5     6   ar
    16     6     7    1
    17     6     8   ar
    18     8    22    1
    19    22    24    1
    20    24    25    1
    21    25    26    1
    22    26    27    1
    23    27    28    1
    24    28    29    1
    25    29    30    1
    26     8     9   ar
    27     9    10   ar
    28    15    16   ar
    29    16    11   ar
    30    10     1   ar
    31    10     4   ar
    32    30    25    1
    33    22    23    1
    34    28    31    1
@<TRIPOS>MOLECULE
*****
 31 34 0 0 0
SMALL
GASTEIGER

@<TRIPOS>ATOM
      1 N         143.2987  141.6903  165.1733 N.ar    1  UNL1       -0.1928
      2 N         144.4593  142.5485  164.7654 N.ar    1  UNL1       -0.0582
      3 N         145.0555  141.9608  163.5207 N.ar    1  UNL1       -0.1268
      4 C         144.2633  140.7393  163.1594 C.ar    1  UNL1        0.1411
      5 C         144.3904  139.7577  162.0323 C.ar    1  UNL1        0.0383
      6 C         143.4317  138.6089  161.9266 C.ar    1  UNL1        0.0906
      7 CL        143.5588  137.6273  160.7995 Cl      1  UNL1       -0.0793
      8 C         142.3459  138.4417  162.9479 C.ar    1  UNL1        0.1409
      9 N         142.2189  139.4234  164.0750 N.ar    1  UNL1       -0.2096
     10 C         143.1776  140.5721  164.1808 C.ar    1  UNL1        0.1860
     11 C         141.8802  141.5109  168.8754 C.ar    1  UNL1        0.1483
     12 C         140.6458  142.3535  168.7472 C.ar    1  UNL1        0.0373
     13 C         140.2958  142.9751  167.4277 C.ar    1  UNL1        0.0047
     14 C         141.1801  142.7539  166.2364 C.ar    1  UNL1        0.0195
     15 C         142.4145  141.9113  166.3646 C.ar    1  UNL1        0.0891
     16 C         142.7645  141.2898  167.6841 C.ar    1  UNL1        0.0564
     17 O         142.2302  140.8894  170.1949 O.3     1  UNL1       -0.4044
     18 F         142.6645  137.9273  170.3897 F       1  UNL1       -0.1328
     19 C         142.4473  139.4083  170.2923 C.3     1  UNL1        0.5753
     20 F         141.1922  139.1726  169.5055 F       1  UNL1       -0.1328
     21 F         143.7025  139.6441  171.0791 F       1  UNL1       -0.1328
     22 N         141.3872  137.2930  162.8422 N.pl3   1  UNL1       -0.3174
     23 H         141.6619  136.4626  162.3903 H       1  UNL1        0.1482
     24 C         140.0100  137.4093  163.4251 C.3     1  UNL1        0.0882
     25 C         139.0628  138.4516  162.9090 C.3     1  UNL1        0.0223
     26 C         138.6346  139.5818  163.7975 C.3     1  UNL1        0.0188
     27 C         137.6874  140.6241  163.2813 C.3     1  UNL1        0.0686
     28 N         137.1683  140.5362  161.8768 N.3     1  UNL1       -0.2975
     29 C         137.5964  139.4060  160.9883 C.3     1  UNL1        0.0686
     30 C         138.5437  138.3637  161.5044 C.3     1  UNL1        0.0188
     31 H         137.4415  141.3995  161.4073 H       1  UNL1        0.1232
@<TRIPOS>BOND
     1    18    19    1
     2    19    20    1
     3    19    21    1
     4    19    17    1
     5    17    11    1
     6    11    12   ar
     7    12    13   ar
     8    13    14   ar
     9    14    15   ar
    10    15     1    1
    11     1     2   ar
    12     2     3   ar
    13     3     4   ar
    14     4     5   ar
    15     5     6   ar
    16     6     7    1
    17     6     8   ar
    18     8    22    1
    19    22    24    1
    20    24    25    1
    21    25    26    1
    22    26    27    1
    23    27    28    1
    24    28    29    1
    25    29    30    1
    26     8     9   ar
    27     9    10   ar
    28    15    16   ar
    29    16    11   ar
    30    10     1   ar
    31    10     4   ar
    32    30    25    1
    33    22    23    1
    34    28    31    1
@<TRIPOS>MOLECULE
*****
 31 34 0 0 0
SMALL
GASTEIGER

@<TRIPOS>ATOM
      1 N         140.2254  139.2173  162.0949 N.ar    1  UNL1       -0.1928
      2 N         140.2487  137.7586  161.7458 N.ar    1  UNL1       -0.0582
      3 N         140.9409  137.0271  162.8574 N.ar    1  UNL1       -0.1268
      4 C         141.3455  138.0335  163.8934 C.ar    1  UNL1        0.1411
      5 C         142.0594  137.8923  165.2050 C.ar    1  UNL1        0.0383
      6 C         142.3311  139.1047  166.0455 C.ar    1  UNL1        0.0906
      7 CL        143.0450  138.9635  167.3571 Cl      1  UNL1       -0.0793
      8 C         141.8889  140.4584  165.5742 C.ar    1  UNL1        0.1409
      9 N         141.1750  140.5996  164.2625 N.ar    1  UNL1       -0.2096
     10 C         140.9033  139.3872  163.4222 C.ar    1  UNL1        0.1860
     11 C         138.4281  142.6113  161.0947 C.ar    1  UNL1        0.1483
     12 C         138.4363  142.5061  159.5984 C.ar    1  UNL1        0.0373
     13 C         139.0408  141.3047  158.9343 C.ar    1  UNL1        0.0047
     14 C         139.6372  140.2084  159.7665 C.ar    1  UNL1        0.0195
     15 C         139.6290  140.3136  161.2628 C.ar    1  UNL1        0.0891
     16 C         139.0245  141.5150  161.9269 C.ar    1  UNL1        0.0564
     17 O         137.8236  143.8127  161.7588 O.3     1  UNL1       -0.4044
     18 F         139.1712  145.0490  164.1370 F       1  UNL1       -0.1328
     19 C         138.4974  144.4308  162.9479 C.3     1  UNL1        0.5753
     20 F         137.3752  143.9636  163.8267 F       1  UNL1       -0.1328
     21 F         139.6196  144.8981  162.0691 F       1  UNL1       -0.1328
     22 N         142.1606  141.6708  166.4145 N.pl3   1  UNL1       -0.3174
     23 H         141.5031  141.9608  167.0874 H       1  UNL1        0.1482
     24 C         143.4342  142.4414  166.2297 C.3     1  UNL1        0.0882
     25 C         143.9746  142.6772  164.8505 C.3     1  UNL1        0.0223
     26 C         143.5293  143.8751  164.0651 C.3     1  UNL1        0.0188
     27 C         144.0698  144.1109  162.6858 C.3     1  UNL1        0.0686
     28 N         145.0556  143.1489  162.0920 N.3     1  UNL1       -0.2975
     29 C         145.5010  141.9511  162.8774 C.3     1  UNL1        0.0686
     30 C         144.9606  141.7152  164.2566 C.3     1  UNL1        0.0188
     31 H         145.8948  143.6855  161.8721 H       1  UNL1        0.1232
@<TRIPOS>BOND
     1    18    19    1
     2    19    20    1
     3    19    21    1
     4    19    17    1
     5    17    11    1
     6    11    12   ar
     7    12    13   ar
     8    13    14   ar
     9    14    15   ar
    10    15     1    1
    11     1     2   ar
    12     2     3   ar
    13     3     4   ar
    14     4     5   ar
    15     5     6   ar
    16     6     7    1
    17     6     8   ar
    18     8    22    1
    19    22    24    1
    20    24    25    1
    21    25    26    1
    22    26    27    1
    23    27    28    1
    24    28    29    1
    25    29    30    1
    26     8     9   ar
    27     9    10   ar
    28    15    16   ar
    29    16    11   ar
    30    10     1   ar
    31    10     4   ar
    32    30    25    1
    33    22    23    1
    34    28    31    1
@<TRIPOS>MOLECULE
*****
 31 34 0 0 0
SMALL
GASTEIGER

@<TRIPOS>ATOM
      1 N         143.2098  142.6053  165.1222 N.ar    1  UNL1       -0.1928
      2 N         144.3487  143.5814  165.1099 N.ar    1  UNL1       -0.0582
      3 N         143.8983  144.8098  164.3763 N.ar    1  UNL1       -0.1268
      4 C         142.4811  144.5929  163.9353 C.ar    1  UNL1        0.1411
      5 C         141.5231  145.4600  163.1734 C.ar    1  UNL1        0.0383
      6 C         140.1395  144.9646  162.8726 C.ar    1  UNL1        0.0906
      7 CL        139.1816  145.8317  162.1108 Cl      1  UNL1       -0.0793
      8 C         139.7140  143.6022  163.3337 C.ar    1  UNL1        0.1409
      9 N         140.6721  142.7351  164.0955 N.ar    1  UNL1       -0.2096
     10 C         142.0555  143.2304  164.3963 C.ar    1  UNL1        0.1860
     11 C         142.6617  139.6819  167.7497 C.ar    1  UNL1        0.1483
     12 C         143.2489  138.5189  167.0064 C.ar    1  UNL1        0.0373
     13 C         143.8231  138.7180  165.6350 C.ar    1  UNL1        0.0047
     14 C         143.8100  140.0802  165.0070 C.ar    1  UNL1        0.0195
     15 C         143.2228  141.2432  165.7503 C.ar    1  UNL1        0.0891
     16 C         142.6486  141.0441  167.1217 C.ar    1  UNL1        0.0564
     17 O         142.0875  139.4828  169.1210 O.3     1  UNL1       -0.4044
     18 F         142.0007  141.7723  171.0578 F       1  UNL1       -0.1328
     19 C         142.0441  140.6276  170.0894 C.3     1  UNL1        0.5753
     20 F         140.5660  140.7575  169.8695 F       1  UNL1       -0.1328
     21 F         143.5222  140.4976  170.3093 F       1  UNL1       -0.1328
     22 N         138.3305  143.1068  163.0329 N.pl3   1  UNL1       -0.3174
     23 H         137.8611  143.4176  162.2253 H       1  UNL1        0.1482
     24 C         137.6622  142.1378  163.9627 C.3     1  UNL1        0.0882
     25 C         138.0018  140.6783  163.8958 C.3     1  UNL1        0.0223
     26 C         138.3309  139.9266  165.1514 C.3     1  UNL1        0.0188
     27 C         138.6706  138.4670  165.0845 C.3     1  UNL1        0.0686
     28 N         138.6812  137.7593  163.7621 N.3     1  UNL1       -0.2975
     29 C         138.3521  138.5111  162.5064 C.3     1  UNL1        0.0686
     30 C         138.0124  139.9705  162.5733 C.3     1  UNL1        0.0188
     31 H         138.0098  136.9946  163.8319 H       1  UNL1        0.1232
@<TRIPOS>BOND
     1    18    19    1
     2    19    20    1
     3    19    21    1
     4    19    17    1
     5    17    11    1
     6    11    12   ar
     7    12    13   ar
     8    13    14   ar
     9    14    15   ar
    10    15     1    1
    11     1     2   ar
    12     2     3   ar
    13     3     4   ar
    14     4     5   ar
    15     5     6   ar
    16     6     7    1
    17     6     8   ar
    18     8    22    1
    19    22    24    1
    20    24    25    1
    21    25    26    1
    22    26    27    1
    23    27    28    1
    24    28    29    1
    25    29    30    1
    26     8     9   ar
    27     9    10   ar
    28    15    16   ar
    29    16    11   ar
    30    10     1   ar
    31    10     4   ar
    32    30    25    1
    33    22    23    1
    34    28    31    1
