@<TRIPOS>MOLECULE
*****
 40 45 0 0 0
SMALL
GASTEIGER

@<TRIPOS>ATOM
      1 C         137.8765  142.8392  163.4920 C.3     1  UNL1        0.0932
      2 C         138.0558  142.7466  162.0056 C.3     1  UNL1        0.0286
      3 C         138.0645  141.4058  161.3334 C.3     1  UNL1        0.0193
      4 C         137.8940  140.1574  162.1474 C.3     1  UNL1        0.0700
      5 C         137.7147  140.2500  163.6338 C.3     1  UNL1        0.0193
      6 C         137.7059  141.5910  164.3061 C.3     1  UNL1        0.0286
      7 C         137.8824  140.8696  162.5604 C.3     1  UNL1        0.1562
      8 O         137.8745  142.0821  163.1684 O.3     1  UNL1       -0.3572
      9 N         137.9027  138.8166  161.4752 N.3     1  UNL1       -0.2926
     10 H         137.3525  138.9116  160.6216 H       1  UNL1        0.1236
     11 C         139.2044  138.1827  161.0830 C.3     1  UNL1        0.1152
     12 C         140.4056  138.3259  161.9698 C.ar    1  UNL1        0.0765
     13 C         140.5623  137.4389  163.1693 C.ar    1  UNL1        0.0193
     14 C         141.7636  137.5821  164.0562 C.ar    1  UNL1        0.0411
     15 C         142.8081  138.6123  163.7435 C.ar    1  UNL1        0.1708
     16 C         142.6514  139.4992  162.5441 C.ar    1  UNL1        0.1682
     17 N         141.4502  139.3560  161.6572 N.ar    1  UNL1       -0.2304
     18 N         143.6960  140.5294  162.2315 N.am    1  UNL1       -0.2639
     19 C         144.8972  140.6726  163.1183 C.2     1  UNL1        0.2718
     20 O         145.9417  141.7027  162.8057 O.2     1  UNL1       -0.2707
     21 C         145.0539  139.7856  164.3178 C.3     1  UNL1        0.2898
     22 O         144.0094  138.7555  164.6304 O.3     1  UNL1       -0.4628
     23 H         143.5931  141.1115  161.4442 H       1  UNL1        0.1565
     24 C         137.8677  144.1801  164.1643 C.3     1  UNL1        0.0320
     25 C         138.9301  144.5238  165.1660 C.3     1  UNL1        0.0327
     26 C         140.5221  141.3357  167.9140 C.ar    1  UNL1        0.1567
     27 C         141.9186  140.8189  167.7335 C.ar    1  UNL1        0.0273
     28 C         142.7844  141.3647  166.6369 C.ar    1  UNL1        0.0224
     29 C         142.2538  142.4273  165.7209 C.ar    1  UNL1        0.0988
     30 N         143.1196  142.9731  164.6243 N.ar    1  UNL1       -0.2400
     31 C         142.5890  144.0358  163.7084 C.ar    1  UNL1        0.1281
     32 C         141.1924  144.5527  163.8889 C.ar    1  UNL1        0.1566
     33 F         140.6618  145.6154  162.9729 F       1  UNL1       -0.2028
     34 C         140.3266  144.0069  164.9854 C.ar    1  UNL1        0.0260
     35 C         140.8573  142.9442  165.9015 C.ar    1  UNL1        0.0973
     36 N         139.9915  142.3984  166.9980 N.ar    1  UNL1       -0.2375
     37 C         139.6563  140.7899  169.0106 C.2     1  UNL1        0.3592
     38 O         138.8093  139.5768  168.7639 O.2     1  UNL1       -0.2432
     39 C         139.9979  142.9082  170.4756 C.3     1  UNL1        0.2560
     40 O         139.6375  141.4572  170.3538 O.3     1  UNL1       -0.4403
@<TRIPOS>BOND
     1    39    40    1
     2    40    37    1
     3    37    38    2
     4    37    26    1
     5    26    27   ar
     6    27    28   ar
     7    28    29   ar
     8    29    30   ar
     9    30    31   ar
    10    31    32   ar
    11    32    33    1
    12    32    34   ar
    13    34    25    1
    14    25    24    1
    15    24     1    1
    16     1     2    1
    17     2     3    1
    18     3     4    1
    19     4     9    1
    20     9    11    1
    21    11    12    1
    22    12    13   ar
    23    13    14   ar
    24    14    15   ar
    25    15    16   ar
    26    16    17   ar
    27    16    18    1
    28    18    19   am
    29    19    20    2
    30    19    21    1
    31    21    22    1
    32     4     5    1
    33     5     6    1
    34     4     7    1
    35     7     8    1
    36    34    35   ar
    37    35    36   ar
    38    36    26   ar
    39    35    29   ar
    40     6     1    1
    41     8     1    1
    42    17    12   ar
    43    22    15    1
    44     9    10    1
    45    18    23    1
@<TRIPOS>MOLECULE
*****
 40 45 0 0 0
SMALL
GASTEIGER

@<TRIPOS>ATOM
      1 C         141.9636  137.9918  164.0665 C.3     1  UNL1        0.0932
      2 C         142.2268  138.2916  162.6205 C.3     1  UNL1        0.0286
      3 C         143.4093  139.1282  162.2312 C.3     1  UNL1        0.0193
      4 C         144.3287  139.6652  163.2879 C.3     1  UNL1        0.0700
      5 C         144.0655  139.3654  164.7339 C.3     1  UNL1        0.0193
      6 C         142.8829  138.5287  165.1232 C.3     1  UNL1        0.0286
      7 C         143.6936  139.2114  163.5498 C.3     1  UNL1        0.1562
      8 O         142.6243  138.4548  163.9019 O.3     1  UNL1       -0.3572
      9 N         145.5112  140.5018  162.8986 N.3     1  UNL1       -0.2926
     10 H         145.5578  140.4898  161.8797 H       1  UNL1        0.1236
     11 C         145.5832  141.9401  163.3184 C.3     1  UNL1        0.1152
     12 C         144.3774  142.8219  163.1837 C.ar    1  UNL1        0.0765
     13 C         143.7019  143.3613  164.4097 C.ar    1  UNL1        0.0193
     14 C         142.4961  144.2432  164.2751 C.ar    1  UNL1        0.0411
     15 C         141.9656  144.5857  162.9145 C.ar    1  UNL1        0.1708
     16 C         142.6410  144.0464  161.6885 C.ar    1  UNL1        0.1682
     17 N         143.8469  143.1645  161.8231 N.ar    1  UNL1       -0.2304
     18 N         142.1105  144.3890  160.3279 N.am    1  UNL1       -0.2639
     19 C         140.9046  145.2708  160.1932 C.2     1  UNL1        0.2718
     20 O         140.3742  145.6134  158.8326 O.2     1  UNL1       -0.2707
     21 C         140.2292  145.8102  161.4192 C.3     1  UNL1        0.2898
     22 O         140.7597  145.4676  162.7798 O.3     1  UNL1       -0.4628
     23 H         142.5538  144.0350  159.5233 H       1  UNL1        0.1565
     24 C         140.7811  137.1552  164.4558 C.3     1  UNL1        0.0320
     25 C         139.5019  137.8151  164.8782 C.3     1  UNL1        0.0327
     26 C         140.1371  141.9071  166.6392 C.ar    1  UNL1        0.1567
     27 C         139.6437  143.1220  165.9107 C.ar    1  UNL1        0.0273
     28 C         138.9386  142.9728  164.5952 C.ar    1  UNL1        0.0224
     29 C         138.7269  141.6088  164.0082 C.ar    1  UNL1        0.0988
     30 N         138.0218  141.4596  162.6927 N.ar    1  UNL1       -0.2400
     31 C         137.8101  140.0956  162.1056 C.ar    1  UNL1        0.1281
     32 C         138.3034  138.8807  162.8342 C.ar    1  UNL1        0.1566
     33 F         138.0917  137.5167  162.2471 F       1  UNL1       -0.2028
     34 C         139.0085  139.0299  164.1497 C.ar    1  UNL1        0.0260
     35 C         139.2203  140.3940  164.7367 C.ar    1  UNL1        0.0973
     36 N         139.9253  140.5431  166.0522 N.ar    1  UNL1       -0.2375
     37 C         140.8422  142.0563  167.9548 C.2     1  UNL1        0.3592
     38 O         142.3006  142.4053  167.9887 O.2     1  UNL1       -0.2432
     39 C         139.8965  140.4739  169.7855 C.3     1  UNL1        0.2560
     40 O         140.0888  141.8564  169.2364 O.3     1  UNL1       -0.4403
@<TRIPOS>BOND
     1    39    40    1
     2    40    37    1
     3    37    38    2
     4    37    26    1
     5    26    27   ar
     6    27    28   ar
     7    28    29   ar
     8    29    30   ar
     9    30    31   ar
    10    31    32   ar
    11    32    33    1
    12    32    34   ar
    13    34    25    1
    14    25    24    1
    15    24     1    1
    16     1     2    1
    17     2     3    1
    18     3     4    1
    19     4     9    1
    20     9    11    1
    21    11    12    1
    22    12    13   ar
    23    13    14   ar
    24    14    15   ar
    25    15    16   ar
    26    16    17   ar
    27    16    18    1
    28    18    19   am
    29    19    20    2
    30    19    21    1
    31    21    22    1
    32     4     5    1
    33     5     6    1
    34     4     7    1
    35     7     8    1
    36    34    35   ar
    37    35    36   ar
    38    36    26   ar
    39    35    29   ar
    40     6     1    1
    41     8     1    1
    42    17    12   ar
    43    22    15    1
    44     9    10    1
    45    18    23    1
@<TRIPOS>MOLECULE
*****
 40 45 0 0 0
SMALL
GASTEIGER

@<TRIPOS>ATOM
      1 C         139.2069  143.9288  164.0520 C.3     1  UNL1        0.0932
      2 C         140.2849  143.3752  164.9360 C.3     1  UNL1        0.0286
      3 C         141.7052  143.8234  164.7572 C.3     1  UNL1        0.0193
      4 C         142.0475  144.8252  163.6945 C.3     1  UNL1        0.0700
      5 C         140.9695  145.3788  162.8106 C.3     1  UNL1        0.0193
      6 C         139.5492  144.9306  162.9893 C.3     1  UNL1        0.0286
      7 C         141.2551  144.6098  163.7547 C.3     1  UNL1        0.1562
      8 O         139.9708  144.2046  163.9162 O.3     1  UNL1       -0.3572
      9 N         143.4678  145.2734  163.5158 N.3     1  UNL1       -0.2926
     10 H         143.9066  145.2350  164.4358 H       1  UNL1        0.1236
     11 C         144.3733  144.5378  162.5730 C.3     1  UNL1        0.1152
     12 C         144.3570  143.0384  162.5339 C.ar    1  UNL1        0.0765
     13 C         144.9738  142.2521  163.6526 C.ar    1  UNL1        0.0193
     14 C         144.9574  140.7528  163.6135 C.ar    1  UNL1        0.0411
     15 C         144.3243  140.0396  162.4557 C.ar    1  UNL1        0.1708
     16 C         143.7076  140.8258  161.3370 C.ar    1  UNL1        0.1682
     17 N         143.7239  142.3252  161.3761 N.ar    1  UNL1       -0.2304
     18 N         143.0745  140.1126  160.1792 N.am    1  UNL1       -0.2639
     19 C         143.0582  138.6132  160.1400 C.2     1  UNL1        0.2718
     20 O         142.4251  137.9000  158.9822 O.2     1  UNL1       -0.2707
     21 C         143.6749  137.8269  161.2588 C.3     1  UNL1        0.2898
     22 O         144.3080  138.5401  162.4166 O.3     1  UNL1       -0.4628
     23 H         142.6697  140.6286  159.4449 H       1  UNL1        0.1565
     24 C         137.7867  143.4807  164.2307 C.3     1  UNL1        0.0320
     25 C         137.2194  142.4137  163.3419 C.3     1  UNL1        0.0327
     26 C         138.4366  138.8016  165.7338 C.ar    1  UNL1        0.1567
     27 C         139.3420  137.7709  165.1274 C.ar    1  UNL1        0.0273
     28 C         139.8417  137.9442  163.7237 C.ar    1  UNL1        0.0224
     29 C         139.4360  139.1482  162.9264 C.ar    1  UNL1        0.0988
     30 N         139.9357  139.3215  161.5228 N.ar    1  UNL1       -0.2400
     31 C         139.5300  140.5255  160.7255 C.ar    1  UNL1        0.1281
     32 C         138.6245  141.5563  161.3319 C.ar    1  UNL1        0.1566
     33 F         138.2188  142.7603  160.5346 F       1  UNL1       -0.2028
     34 C         138.1248  141.3830  162.7355 C.ar    1  UNL1        0.0260
     35 C         138.5306  140.1789  163.5328 C.ar    1  UNL1        0.0973
     36 N         138.0309  140.0056  164.9365 N.ar    1  UNL1       -0.2375
     37 C         137.9369  138.6283  167.1374 C.2     1  UNL1        0.3592
     38 O         136.8177  137.6712  167.4223 O.2     1  UNL1       -0.2432
     39 C         139.9052  140.0425  168.0733 C.3     1  UNL1        0.2560
     40 O         138.5564  139.4122  168.2562 O.3     1  UNL1       -0.4403
@<TRIPOS>BOND
     1    39    40    1
     2    40    37    1
     3    37    38    2
     4    37    26    1
     5    26    27   ar
     6    27    28   ar
     7    28    29   ar
     8    29    30   ar
     9    30    31   ar
    10    31    32   ar
    11    32    33    1
    12    32    34   ar
    13    34    25    1
    14    25    24    1
    15    24     1    1
    16     1     2    1
    17     2     3    1
    18     3     4    1
    19     4     9    1
    20     9    11    1
    21    11    12    1
    22    12    13   ar
    23    13    14   ar
    24    14    15   ar
    25    15    16   ar
    26    16    17   ar
    27    16    18    1
    28    18    19   am
    29    19    20    2
    30    19    21    1
    31    21    22    1
    32     4     5    1
    33     5     6    1
    34     4     7    1
    35     7     8    1
    36    34    35   ar
    37    35    36   ar
    38    36    26   ar
    39    35    29   ar
    40     6     1    1
    41     8     1    1
    42    17    12   ar
    43    22    15    1
    44     9    10    1
    45    18    23    1
@<TRIPOS>MOLECULE
*****
 40 45 0 0 0
SMALL
GASTEIGER

@<TRIPOS>ATOM
      1 C         137.8948  142.9614  162.9598 C.3     1  UNL1        0.0932
      2 C         138.0513  142.6297  161.5053 C.3     1  UNL1        0.0286
      3 C         138.0297  141.1989  161.0558 C.3     1  UNL1        0.0193
      4 C         137.8517  140.0996  162.0608 C.3     1  UNL1        0.0700
      5 C         137.6952  140.4312  163.5153 C.3     1  UNL1        0.0193
      6 C         137.7168  141.8622  163.9648 C.3     1  UNL1        0.0286
      7 C         137.8570  140.8686  162.3549 C.3     1  UNL1        0.1562
      8 O         137.8765  142.1625  162.7613 O.3     1  UNL1       -0.3572
      9 N         137.8301  138.6687  161.6113 N.3     1  UNL1       -0.2926
     10 H         137.1453  138.6071  160.8579 H       1  UNL1        0.1236
     11 C         139.0865  138.0215  161.1086 C.3     1  UNL1        0.1152
     12 C         140.4093  138.3754  161.7209 C.ar    1  UNL1        0.0765
     13 C         141.4504  139.0794  160.9020 C.ar    1  UNL1        0.0193
     14 C         142.7732  139.4334  161.5142 C.ar    1  UNL1        0.0411
     15 C         143.0549  139.0834  162.9454 C.ar    1  UNL1        0.1708
     16 C         142.0139  138.3794  163.7642 C.ar    1  UNL1        0.1682
     17 N         140.6910  138.0254  163.1520 N.ar    1  UNL1       -0.2304
     18 N         142.2956  138.0294  165.1954 N.am    1  UNL1       -0.2639
     19 C         143.6184  138.3834  165.8076 C.2     1  UNL1        0.2718
     20 O         143.9002  138.0334  167.2387 O.2     1  UNL1       -0.2707
     21 C         144.6596  139.0874  164.9887 C.3     1  UNL1        0.2898
     22 O         144.3778  139.4374  163.5576 O.3     1  UNL1       -0.4628
     23 H         141.6123  137.5674  165.7328 H       1  UNL1        0.1565
     24 C         137.9164  144.3923  163.4093 C.3     1  UNL1        0.0320
     25 C         138.9593  144.8572  164.3821 C.3     1  UNL1        0.0327
     26 C         141.1103  142.0464  167.1610 C.ar    1  UNL1        0.1567
     27 C         142.5549  141.7184  166.9255 C.ar    1  UNL1        0.0273
     28 C         143.2825  142.3273  165.7638 C.ar    1  UNL1        0.0224
     29 C         142.5655  143.2643  164.8375 C.ar    1  UNL1        0.0988
     30 N         143.2932  143.8732  163.6757 N.ar    1  UNL1       -0.2400
     31 C         142.5762  144.8102  162.7494 C.ar    1  UNL1        0.1281
     32 C         141.1315  145.1382  162.9849 C.ar    1  UNL1        0.1566
     33 F         140.4146  146.0751  162.0586 F       1  UNL1       -0.2028
     34 C         140.4039  144.5292  164.1466 C.ar    1  UNL1        0.0260
     35 C         141.1209  143.5922  165.0730 C.ar    1  UNL1        0.0973
     36 N         140.3933  142.9833  166.2347 N.ar    1  UNL1       -0.2375
     37 C         140.3826  141.4374  168.3228 C.2     1  UNL1        0.3592
     38 O         140.6800  141.8982  169.7189 O.2     1  UNL1       -0.2432
     39 C         139.3730  139.5810  166.8114 C.3     1  UNL1        0.2560
     40 O         139.3576  140.3677  168.0885 O.3     1  UNL1       -0.4403
@<TRIPOS>BOND
     1    39    40    1
     2    40    37    1
     3    37    38    2
     4    37    26    1
     5    26    27   ar
     6    27    28   ar
     7    28    29   ar
     8    29    30   ar
     9    30    31   ar
    10    31    32   ar
    11    32    33    1
    12    32    34   ar
    13    34    25    1
    14    25    24    1
    15    24     1    1
    16     1     2    1
    17     2     3    1
    18     3     4    1
    19     4     9    1
    20     9    11    1
    21    11    12    1
    22    12    13   ar
    23    13    14   ar
    24    14    15   ar
    25    15    16   ar
    26    16    17   ar
    27    16    18    1
    28    18    19   am
    29    19    20    2
    30    19    21    1
    31    21    22    1
    32     4     5    1
    33     5     6    1
    34     4     7    1
    35     7     8    1
    36    34    35   ar
    37    35    36   ar
    38    36    26   ar
    39    35    29   ar
    40     6     1    1
    41     8     1    1
    42    17    12   ar
    43    22    15    1
    44     9    10    1
    45    18    23    1
@<TRIPOS>MOLECULE
*****
 40 45 0 0 0
SMALL
GASTEIGER

@<TRIPOS>ATOM
      1 C         144.7189  140.2399  163.5749 C.3     1  UNL1        0.0932
      2 C         144.2608  140.1086  162.1527 C.3     1  UNL1        0.0286
      3 C         143.2088  139.1014  161.7935 C.3     1  UNL1        0.0193
      4 C         142.6150  138.2255  162.8567 C.3     1  UNL1        0.0700
      5 C         143.0732  138.3568  164.2789 C.3     1  UNL1        0.0193
      6 C         144.1252  139.3640  164.6380 C.3     1  UNL1        0.0286
      7 C         143.1887  138.7629  163.1017 C.3     1  UNL1        0.1562
      8 O         144.1399  139.6736  163.4265 O.3     1  UNL1       -0.3572
      9 N         141.5631  137.2183  162.4975 N.3     1  UNL1       -0.2926
     10 H         141.9736  136.2970  162.6492 H       1  UNL1        0.1236
     11 C         140.2427  137.2266  163.2092 C.3     1  UNL1        0.1152
     12 C         139.5798  138.5296  163.5450 C.ar    1  UNL1        0.0765
     13 C         138.7423  138.6477  164.7839 C.ar    1  UNL1        0.0193
     14 C         138.0795  139.9507  165.1197 C.ar    1  UNL1        0.0411
     15 C         138.2541  141.1357  164.2167 C.ar    1  UNL1        0.1708
     16 C         139.0915  141.0176  162.9779 C.ar    1  UNL1        0.1682
     17 N         139.7545  139.7146  162.6420 N.ar    1  UNL1       -0.2304
     18 N         139.2662  142.2025  162.0748 N.am    1  UNL1       -0.2639
     19 C         138.6033  143.5055  162.4106 C.2     1  UNL1        0.2718
     20 O         138.7779  144.6905  161.5076 O.2     1  UNL1       -0.2707
     21 C         137.7658  143.6236  163.6495 C.3     1  UNL1        0.2898
     22 O         137.5912  142.4387  164.5525 O.3     1  UNL1       -0.4628
     23 H         139.8158  142.1250  161.2618 H       1  UNL1        0.1565
     24 C         145.7709  141.2470  163.9341 C.3     1  UNL1        0.0320
     25 C         145.3782  142.5469  164.5714 C.3     1  UNL1        0.0327
     26 C         142.1448  141.8488  167.6223 C.ar    1  UNL1        0.1567
     27 C         140.7709  142.4081  167.4003 C.ar    1  UNL1        0.0273
     28 C         140.4746  143.2001  166.1613 C.ar    1  UNL1        0.0224
     29 C         141.5524  143.4328  165.1443 C.ar    1  UNL1        0.0988
     30 N         141.2562  144.2247  163.9054 N.ar    1  UNL1       -0.2400
     31 C         142.3339  144.4574  162.8884 C.ar    1  UNL1        0.1281
     32 C         143.7080  143.8982  163.1104 C.ar    1  UNL1        0.1566
     33 F         144.7858  144.1309  162.0935 F       1  UNL1       -0.2028
     34 C         144.0042  143.1062  164.3494 C.ar    1  UNL1        0.0260
     35 C         142.9264  142.8735  165.3664 C.ar    1  UNL1        0.0973
     36 N         143.2226  142.0815  166.6053 N.ar    1  UNL1       -0.2375
     37 C         142.4411  141.0569  168.8612 C.2     1  UNL1        0.3592
     38 O         143.5654  141.4696  169.7643 O.2     1  UNL1       -0.2432
     39 C         140.6058  139.9200  170.3066 C.3     1  UNL1        0.2560
     40 O         141.6130  139.8521  169.1972 O.3     1  UNL1       -0.4403
@<TRIPOS>BOND
     1    39    40    1
     2    40    37    1
     3    37    38    2
     4    37    26    1
     5    26    27   ar
     6    27    28   ar
     7    28    29   ar
     8    29    30   ar
     9    30    31   ar
    10    31    32   ar
    11    32    33    1
    12    32    34   ar
    13    34    25    1
    14    25    24    1
    15    24     1    1
    16     1     2    1
    17     2     3    1
    18     3     4    1
    19     4     9    1
    20     9    11    1
    21    11    12    1
    22    12    13   ar
    23    13    14   ar
    24    14    15   ar
    25    15    16   ar
    26    16    17   ar
    27    16    18    1
    28    18    19   am
    29    19    20    2
    30    19    21    1
    31    21    22    1
    32     4     5    1
    33     5     6    1
    34     4     7    1
    35     7     8    1
    36    34    35   ar
    37    35    36   ar
    38    36    26   ar
    39    35    29   ar
    40     6     1    1
    41     8     1    1
    42    17    12   ar
    43    22    15    1
    44     9    10    1
    45    18    23    1
@<TRIPOS>MOLECULE
*****
 40 45 0 0 0
SMALL
GASTEIGER

@<TRIPOS>ATOM
      1 C         144.4410  139.7288  163.7982 C.3     1  UNL1        0.0932
      2 C         144.2158  139.2037  162.4113 C.3     1  UNL1        0.0286
      3 C         143.0469  138.3070  162.1295 C.3     1  UNL1        0.0193
      4 C         142.1031  137.9353  163.2346 C.3     1  UNL1        0.0700
      5 C         142.3282  138.4604  164.6215 C.3     1  UNL1        0.0193
      6 C         143.4972  139.3571  164.9033 C.3     1  UNL1        0.0286
      7 C         142.7295  138.4296  163.4374 C.3     1  UNL1        0.1562
      8 O         143.7865  139.2404  163.6923 O.3     1  UNL1       -0.3572
      9 N         140.9341  137.0386  162.9527 N.3     1  UNL1       -0.2926
     10 H         140.7613  136.5038  163.8039 H       1  UNL1        0.1236
     11 C         139.6191  137.6287  162.5376 C.3     1  UNL1        0.1152
     12 C         139.1858  138.9556  163.0866 C.ar    1  UNL1        0.0765
     13 C         138.5502  139.0347  164.4430 C.ar    1  UNL1        0.0193
     14 C         138.1168  140.3616  164.9921 C.ar    1  UNL1        0.0411
     15 C         138.3191  141.6095  164.1847 C.ar    1  UNL1        0.1708
     16 C         138.9546  141.5305  162.8284 C.ar    1  UNL1        0.1682
     17 N         139.3880  140.2036  162.2793 N.ar    1  UNL1       -0.2304
     18 N         139.1569  142.7785  162.0210 N.am    1  UNL1       -0.2639
     19 C         138.7236  144.1054  162.5701 C.2     1  UNL1        0.2718
     20 O         138.9258  145.3533  161.7627 O.2     1  UNL1       -0.2707
     21 C         138.0880  144.1844  163.9265 C.3     1  UNL1        0.2898
     22 O         137.8857  142.9365  164.7338 O.3     1  UNL1       -0.4628
     23 H         139.5740  142.7266  161.1308 H       1  UNL1        0.1565
     24 C         145.6099  140.6255  164.0801 C.3     1  UNL1        0.0320
     25 C         145.7339  141.9414  163.3708 C.3     1  UNL1        0.0327
     26 C         144.1136  142.3822  159.1959 C.ar    1  UNL1        0.1567
     27 C         142.8935  143.2193  158.9494 C.ar    1  UNL1        0.0273
     28 C         142.2135  143.9094  160.0945 C.ar    1  UNL1        0.0224
     29 C         142.7536  143.7624  161.4862 C.ar    1  UNL1        0.0988
     30 N         142.0736  144.4525  162.6313 N.ar    1  UNL1       -0.2400
     31 C         142.6137  144.3056  164.0230 C.ar    1  UNL1        0.1281
     32 C         143.8338  143.4685  164.2695 C.ar    1  UNL1        0.1566
     33 F         144.3739  143.3216  165.6611 F       1  UNL1       -0.2028
     34 C         144.5138  142.7784  163.1243 C.ar    1  UNL1        0.0260
     35 C         143.9737  142.9254  161.7326 C.ar    1  UNL1        0.0973
     36 N         144.6537  142.2353  160.5875 N.ar    1  UNL1       -0.2375
     37 C         144.7936  141.6921  158.0507 C.2     1  UNL1        0.3592
     38 O         144.5458  140.2342  157.7998 O.2     1  UNL1       -0.2432
     39 C         147.0213  142.9805  157.6941 C.3     1  UNL1        0.2560
     40 O         145.7213  142.4600  157.1565 O.3     1  UNL1       -0.4403
@<TRIPOS>BOND
     1    39    40    1
     2    40    37    1
     3    37    38    2
     4    37    26    1
     5    26    27   ar
     6    27    28   ar
     7    28    29   ar
     8    29    30   ar
     9    30    31   ar
    10    31    32   ar
    11    32    33    1
    12    32    34   ar
    13    34    25    1
    14    25    24    1
    15    24     1    1
    16     1     2    1
    17     2     3    1
    18     3     4    1
    19     4     9    1
    20     9    11    1
    21    11    12    1
    22    12    13   ar
    23    13    14   ar
    24    14    15   ar
    25    15    16   ar
    26    16    17   ar
    27    16    18    1
    28    18    19   am
    29    19    20    2
    30    19    21    1
    31    21    22    1
    32     4     5    1
    33     5     6    1
    34     4     7    1
    35     7     8    1
    36    34    35   ar
    37    35    36   ar
    38    36    26   ar
    39    35    29   ar
    40     6     1    1
    41     8     1    1
    42    17    12   ar
    43    22    15    1
    44     9    10    1
    45    18    23    1
@<TRIPOS>MOLECULE
*****
 40 45 0 0 0
SMALL
GASTEIGER

@<TRIPOS>ATOM
      1 C         139.3506  137.7958  164.5575 C.3     1  UNL1        0.0932
      2 C         138.8489  137.9361  163.1508 C.3     1  UNL1        0.0286
      3 C         139.8008  137.8070  161.9988 C.3     1  UNL1        0.0193
      4 C         141.2543  137.5377  162.2533 C.3     1  UNL1        0.0700
      5 C         141.7560  137.3975  163.6600 C.3     1  UNL1        0.0193
      6 C         140.8040  137.5265  164.8121 C.3     1  UNL1        0.0286
      7 C         140.7708  137.6005  162.9168 C.3     1  UNL1        0.1562
      8 O         139.9101  137.7171  163.9585 O.3     1  UNL1       -0.3572
      9 N         142.2062  137.4087  161.1013 N.3     1  UNL1       -0.2926
     10 H         141.7019  136.9303  160.3548 H       1  UNL1        0.1236
     11 C         142.8182  138.6357  160.4930 C.3     1  UNL1        0.1152
     12 C         143.2464  139.7741  161.3708 C.ar    1  UNL1        0.0765
     13 C         144.4743  139.6438  162.2225 C.ar    1  UNL1        0.0193
     14 C         144.9025  140.7823  163.1003 C.ar    1  UNL1        0.0411
     15 C         144.1028  142.0511  163.1264 C.ar    1  UNL1        0.1708
     16 C         142.8750  142.1814  162.2748 C.ar    1  UNL1        0.1682
     17 N         142.4467  141.0430  161.3969 N.ar    1  UNL1       -0.2304
     18 N         142.0753  143.4502  162.3009 N.am    1  UNL1       -0.2639
     19 C         142.5035  144.5887  163.1787 C.2     1  UNL1        0.2718
     20 O         141.7038  145.8575  163.2048 O.2     1  UNL1       -0.2707
     21 C         143.7314  144.4584  164.0304 C.3     1  UNL1        0.2898
     22 O         144.5310  143.1896  164.0043 O.3     1  UNL1       -0.4628
     23 H         141.2694  143.5358  161.7419 H       1  UNL1        0.1565
     24 C         138.3987  137.9248  165.7096 C.3     1  UNL1        0.0320
     25 C         138.1358  139.2704  166.3181 C.3     1  UNL1        0.0327
     26 C         141.9348  140.5004  168.3928 C.ar    1  UNL1        0.1567
     27 C         142.6954  141.7015  167.9145 C.ar    1  UNL1        0.0273
     28 C         142.1898  142.4926  166.7447 C.ar    1  UNL1        0.0224
     29 C         140.9235  142.0826  166.0531 C.ar    1  UNL1        0.0988
     30 N         140.4178  142.8736  164.8833 N.ar    1  UNL1       -0.2400
     31 C         139.1515  142.4636  164.1917 C.ar    1  UNL1        0.1281
     32 C         138.3908  141.2625  164.6700 C.ar    1  UNL1        0.1566
     33 F         137.1244  140.8525  163.9784 F       1  UNL1       -0.2028
     34 C         138.8964  140.4715  165.8398 C.ar    1  UNL1        0.0260
     35 C         140.1628  140.8815  166.5314 C.ar    1  UNL1        0.0973
     36 N         140.6685  140.0905  167.7012 N.ar    1  UNL1       -0.2375
     37 C         142.4404  139.7094  169.5626 C.2     1  UNL1        0.3592
     38 O         143.1209  138.3915  169.3390 O.2     1  UNL1       -0.2432
     39 C         141.2014  141.2530  171.2455 C.3     1  UNL1        0.2560
     40 O         142.2656  140.2362  170.9561 O.3     1  UNL1       -0.4403
@<TRIPOS>BOND
     1    39    40    1
     2    40    37    1
     3    37    38    2
     4    37    26    1
     5    26    27   ar
     6    27    28   ar
     7    28    29   ar
     8    29    30   ar
     9    30    31   ar
    10    31    32   ar
    11    32    33    1
    12    32    34   ar
    13    34    25    1
    14    25    24    1
    15    24     1    1
    16     1     2    1
    17     2     3    1
    18     3     4    1
    19     4     9    1
    20     9    11    1
    21    11    12    1
    22    12    13   ar
    23    13    14   ar
    24    14    15   ar
    25    15    16   ar
    26    16    17   ar
    27    16    18    1
    28    18    19   am
    29    19    20    2
    30    19    21    1
    31    21    22    1
    32     4     5    1
    33     5     6    1
    34     4     7    1
    35     7     8    1
    36    34    35   ar
    37    35    36   ar
    38    36    26   ar
    39    35    29   ar
    40     6     1    1
    41     8     1    1
    42    17    12   ar
    43    22    15    1
    44     9    10    1
    45    18    23    1
@<TRIPOS>MOLECULE
*****
 40 45 0 0 0
SMALL
GASTEIGER

@<TRIPOS>ATOM
      1 C         143.8294  141.9913  163.7256 C.3     1  UNL1        0.0932
      2 C         142.9052  142.4723  164.8048 C.3     1  UNL1        0.0286
      3 C         142.1249  143.7391  164.6144 C.3     1  UNL1        0.0193
      4 C         142.2687  144.5249  163.3448 C.3     1  UNL1        0.0700
      5 C         143.1928  144.0439  162.2656 C.3     1  UNL1        0.0193
      6 C         143.9731  142.7771  162.4560 C.3     1  UNL1        0.0286
      7 C         142.7169  143.8368  163.4035 C.3     1  UNL1        0.1562
      8 O         143.4226  142.6913  163.5756 O.3     1  UNL1       -0.3572
      9 N         141.4884  145.7917  163.1544 N.3     1  UNL1       -0.2926
     10 H         142.1102  146.4537  162.6902 H       1  UNL1        0.1236
     11 C         140.2103  145.7746  162.3694 C.3     1  UNL1        0.1152
     12 C         139.4500  144.4924  162.2021 C.ar    1  UNL1        0.0765
     13 C         138.4292  144.0870  163.2237 C.ar    1  UNL1        0.0193
     14 C         137.6689  142.8049  163.0564 C.ar    1  UNL1        0.0411
     15 C         137.9294  141.9281  161.8675 C.ar    1  UNL1        0.1708
     16 C         138.9502  142.3334  160.8460 C.ar    1  UNL1        0.1682
     17 N         139.7105  143.6156  161.0132 N.ar    1  UNL1       -0.2304
     18 N         139.2107  141.4566  159.6571 N.am    1  UNL1       -0.2639
     19 C         138.4504  140.1745  159.4899 C.2     1  UNL1        0.2718
     20 O         138.7109  139.2977  158.3010 O.2     1  UNL1       -0.2707
     21 C         137.4295  139.7691  160.5115 C.3     1  UNL1        0.2898
     22 O         137.1690  140.6459  161.7003 O.3     1  UNL1       -0.4628
     23 H         139.8807  141.7227  158.9867 H       1  UNL1        0.1565
     24 C         144.6097  140.7245  163.9160 C.3     1  UNL1        0.0320
     25 C         143.9110  139.4722  164.3563 C.3     1  UNL1        0.0327
     26 C         139.7185  139.3018  165.9821 C.ar    1  UNL1        0.1567
     27 C         138.6131  138.7265  165.1471 C.ar    1  UNL1        0.0273
     28 C         138.9053  138.2080  163.7702 C.ar    1  UNL1        0.0224
     29 C         140.3028  138.2648  163.2283 C.ar    1  UNL1        0.0988
     30 N         140.5949  137.7462  161.8515 N.ar    1  UNL1       -0.2400
     31 C         141.9924  137.8030  161.3095 C.ar    1  UNL1        0.1281
     32 C         143.0979  138.3784  162.1445 C.ar    1  UNL1        0.1566
     33 F         144.4954  138.4352  161.6026 F       1  UNL1       -0.2028
     34 C         142.8057  138.8969  163.5214 C.ar    1  UNL1        0.0260
     35 C         141.4081  138.8401  164.0633 C.ar    1  UNL1        0.0973
     36 N         141.1160  139.3586  165.4401 N.ar    1  UNL1       -0.2375
     37 C         139.4263  139.8204  167.3589 C.2     1  UNL1        0.3592
     38 O         138.3368  139.1966  168.1797 O.2     1  UNL1       -0.2432
     39 C         140.6006  140.9777  169.3668 C.3     1  UNL1        0.2560
     40 O         140.2237  140.9627  167.9150 O.3     1  UNL1       -0.4403
@<TRIPOS>BOND
     1    39    40    1
     2    40    37    1
     3    37    38    2
     4    37    26    1
     5    26    27   ar
     6    27    28   ar
     7    28    29   ar
     8    29    30   ar
     9    30    31   ar
    10    31    32   ar
    11    32    33    1
    12    32    34   ar
    13    34    25    1
    14    25    24    1
    15    24     1    1
    16     1     2    1
    17     2     3    1
    18     3     4    1
    19     4     9    1
    20     9    11    1
    21    11    12    1
    22    12    13   ar
    23    13    14   ar
    24    14    15   ar
    25    15    16   ar
    26    16    17   ar
    27    16    18    1
    28    18    19   am
    29    19    20    2
    30    19    21    1
    31    21    22    1
    32     4     5    1
    33     5     6    1
    34     4     7    1
    35     7     8    1
    36    34    35   ar
    37    35    36   ar
    38    36    26   ar
    39    35    29   ar
    40     6     1    1
    41     8     1    1
    42    17    12   ar
    43    22    15    1
    44     9    10    1
    45    18    23    1
@<TRIPOS>MOLECULE
*****
 40 45 0 0 0
SMALL
GASTEIGER

@<TRIPOS>ATOM
      1 C         139.0596  142.7062  163.9961 C.3     1  UNL1        0.0932
      2 C         139.9545  143.2574  165.0663 C.3     1  UNL1        0.0286
      3 C         141.1501  144.0826  164.6927 C.3     1  UNL1        0.0193
      4 C         141.4509  144.3566  163.2489 C.3     1  UNL1        0.0700
      5 C         140.5560  143.8055  162.1787 C.3     1  UNL1        0.0193
      6 C         139.3603  142.9802  162.5523 C.3     1  UNL1        0.0286
      7 C         140.7843  143.8991  163.4048 C.3     1  UNL1        0.1562
      8 O         139.7032  143.1530  163.7425 O.3     1  UNL1       -0.3572
      9 N         142.6465  145.1818  162.8754 N.3     1  UNL1       -0.2926
     10 H         142.7326  145.9122  163.5822 H       1  UNL1        0.1236
     11 C         143.9949  144.5362  162.7533 C.3     1  UNL1        0.1152
     12 C         144.1076  143.0420  162.6852 C.ar    1  UNL1        0.0765
     13 C         144.6350  142.2752  163.8616 C.ar    1  UNL1        0.0193
     14 C         144.7477  140.7810  163.7935 C.ar    1  UNL1        0.0411
     15 C         144.3330  140.0536  162.5490 C.ar    1  UNL1        0.1708
     16 C         143.8056  140.8202  161.3726 C.ar    1  UNL1        0.1682
     17 N         143.6929  142.3145  161.4407 N.ar    1  UNL1       -0.2304
     18 N         143.3909  140.0928  160.1281 N.am    1  UNL1       -0.2639
     19 C         143.5036  138.5986  160.0600 C.2     1  UNL1        0.2718
     20 O         143.0889  137.8711  158.8155 O.2     1  UNL1       -0.2707
     21 C         144.0310  137.8318  161.2365 C.3     1  UNL1        0.2898
     22 O         144.4457  138.5593  162.4810 O.3     1  UNL1       -0.4628
     23 H         143.0447  140.5960  159.3560 H       1  UNL1        0.1565
     24 C         137.8640  141.8811  164.3696 C.3     1  UNL1        0.0320
     25 C         138.0506  140.5330  165.0005 C.3     1  UNL1        0.0327
     26 C         141.8313  139.8618  167.3469 C.ar    1  UNL1        0.1567
     27 C         142.8825  138.9282  166.8243 C.ar    1  UNL1        0.0273
     28 C         142.6736  138.2183  165.5196 C.ar    1  UNL1        0.0224
     29 C         141.4134  138.4420  164.7375 C.ar    1  UNL1        0.0988
     30 N         141.2044  137.7320  163.4327 N.ar    1  UNL1       -0.2400
     31 C         139.9442  137.9557  162.6506 C.ar    1  UNL1        0.1281
     32 C         138.8929  138.8894  163.1732 C.ar    1  UNL1        0.1566
     33 F         137.6327  139.1131  162.3911 F       1  UNL1       -0.2028
     34 C         139.1018  139.5993  164.4779 C.ar    1  UNL1        0.0260
     35 C         140.3621  139.3756  165.2601 C.ar    1  UNL1        0.0973
     36 N         140.5711  140.0855  166.5648 N.ar    1  UNL1       -0.2375
     37 C         142.0403  140.5718  168.6517 C.2     1  UNL1        0.3592
     38 O         143.1677  140.1661  169.5541 O.2     1  UNL1       -0.2432
     39 C         139.8876  141.3914  169.8534 C.3     1  UNL1        0.2560
     40 O         141.1218  141.6874  169.0540 O.3     1  UNL1       -0.4403
@<TRIPOS>BOND
     1    39    40    1
     2    40    37    1
     3    37    38    2
     4    37    26    1
     5    26    27   ar
     6    27    28   ar
     7    28    29   ar
     8    29    30   ar
     9    30    31   ar
    10    31    32   ar
    11    32    33    1
    12    32    34   ar
    13    34    25    1
    14    25    24    1
    15    24     1    1
    16     1     2    1
    17     2     3    1
    18     3     4    1
    19     4     9    1
    20     9    11    1
    21    11    12    1
    22    12    13   ar
    23    13    14   ar
    24    14    15   ar
    25    15    16   ar
    26    16    17   ar
    27    16    18    1
    28    18    19   am
    29    19    20    2
    30    19    21    1
    31    21    22    1
    32     4     5    1
    33     5     6    1
    34     4     7    1
    35     7     8    1
    36    34    35   ar
    37    35    36   ar
    38    36    26   ar
    39    35    29   ar
    40     6     1    1
    41     8     1    1
    42    17    12   ar
    43    22    15    1
    44     9    10    1
    45    18    23    1
