@<TRIPOS>MOLECULE
*****
 38 41 0 0 0
SMALL
GASTEIGER

@<TRIPOS>ATOM
      1 C         143.3120  142.7008  157.6412 C.3     1  UNL1        0.0758
      2 C         144.5803  141.9169  157.8054 C.3     1  UNL1        0.0370
      3 C         144.8188  140.6930  156.9716 C.3     1  UNL1        0.0741
      4 N         143.7890  140.2532  155.9734 N.3     1  UNL1       -0.2688
      5 C         142.5208  141.0371  155.8092 C.3     1  UNL1        0.0741
      6 C         142.2823  142.2609  156.6431 C.3     1  UNL1        0.0370
      7 O         141.5668  142.5401  160.0761 O.2     1  UNL1       -0.2525
      8 C         142.2009  143.8443  159.6924 C.2     1  UNL1        0.3044
      9 N         141.9623  145.0682  160.5263 N.am    1  UNL1       -0.2685
     10 N         143.0734  143.9247  158.4750 N.am    1  UNL1       -0.2902
     11 H         142.3784  145.9242  160.2745 H       1  UNL1        0.1564
     12 H         143.4895  144.7806  158.2232 H       1  UNL1        0.1509
     13 C         141.0897  144.9878  161.7438 C.ar    1  UNL1        0.0499
     14 C         139.6079  145.1837  161.6187 C.ar    1  UNL1        0.0153
     15 C         138.7354  145.1033  162.8361 C.ar    1  UNL1        0.0126
     16 C         139.3447  144.8271  164.1787 C.ar    1  UNL1        0.0575
     17 CL        138.4721  144.7467  165.3962 Cl      1  UNL1       -0.0823
     18 C         140.8266  144.6312  164.3038 C.ar    1  UNL1        0.0108
     19 C         141.6991  144.7116  163.0863 C.ar    1  UNL1        0.0213
     20 C         143.1810  144.5157  163.2114 C.3     1  UNL1        0.1649
     21 O         144.1228  145.5383  162.6480 O.3     1  UNL1       -0.3772
     22 H         144.0422  145.5544  161.6815 H       1  UNL1        0.2109
     23 C         144.0276  139.0293  155.1396 C.3     1  UNL1        0.1007
     24 C         143.3275  137.7456  155.4743 C.ar    1  UNL1        0.0129
     25 C         141.8430  137.5460  155.5547 C.ar    1  UNL1        0.0176
     26 C         141.5870  136.1131  155.9175 C.ar    1  UNL1        0.0799
     27 N         142.9133  135.4273  156.0612 N.ar    1  UNL1       -0.3038
     28 C         143.9890  136.4362  155.7873 C.ar    1  UNL1        0.0772
     29 C         143.1265  133.9857  156.4164 C.ar    1  UNL1        0.0640
     30 C         144.2364  133.5991  157.3485 C.ar    1  UNL1        0.0175
     31 C         144.4496  132.1575  157.7038 C.ar    1  UNL1        0.0053
     32 C         143.5529  131.1024  157.1269 C.ar    1  UNL1        0.0715
     33 C         142.4430  131.4889  156.1948 C.ar    1  UNL1        0.0053
     34 C         142.2299  132.9306  155.8396 C.ar    1  UNL1        0.0175
     35 C         143.7661  129.6607  157.4822 C.3     1  UNL1        0.4186
     36 F         143.9793  128.2190  157.8374 F       1  UNL1       -0.1659
     37 F         142.7539  129.2571  156.4515 F       1  UNL1       -0.1659
     38 F         144.7784  130.0644  158.5129 F       1  UNL1       -0.1659
@<TRIPOS>BOND
     1     7     8    2
     2     8     9   am
     3     9    13    1
     4    13    14   ar
     5    14    15   ar
     6    15    16   ar
     7    16    17    1
     8    16    18   ar
     9    18    19   ar
    10    19    20    1
    11    20    21    1
    12     8    10   am
    13    10     1    1
    14     1     2    1
    15     2     3    1
    16     3     4    1
    17     4    23    1
    18    23    24    1
    19    24    25   ar
    20    25    26   ar
    21    26    27   ar
    22    27    29    1
    23    29    30   ar
    24    30    31   ar
    25    31    32   ar
    26    32    35    1
    27    35    36    1
    28    35    37    1
    29    35    38    1
    30    32    33   ar
    31    33    34   ar
    32    27    28   ar
    33     4     5    1
    34     5     6    1
    35    19    13   ar
    36     6     1    1
    37    28    24   ar
    38    34    29   ar
    39     9    11    1
    40    21    22    1
    41    10    12    1
@<TRIPOS>MOLECULE
*****
 38 41 0 0 0
SMALL
GASTEIGER

@<TRIPOS>ATOM
      1 C         142.5065  138.3969  162.7222 C.3     1  UNL1        0.0758
      2 C         143.7078  138.8095  161.9242 C.3     1  UNL1        0.0370
      3 C         143.6129  138.9255  160.4317 C.3     1  UNL1        0.0741
      4 N         142.3168  138.6288  159.7372 N.3     1  UNL1       -0.2688
      5 C         141.1157  138.2161  160.5353 C.3     1  UNL1        0.0741
      6 C         141.2105  138.1002  162.0278 C.3     1  UNL1        0.0370
      7 O         141.6986  140.7047  164.4604 O.2     1  UNL1       -0.2525
      8 C         142.1974  139.4347  165.0838 C.2     1  UNL1        0.3044
      9 N         142.2923  139.3188  166.5763 N.am    1  UNL1       -0.2685
     10 N         142.6014  138.2809  164.2147 N.am    1  UNL1       -0.2902
     11 H         142.6196  138.4853  166.9855 H       1  UNL1        0.1564
     12 H         142.9287  137.4474  164.6239 H       1  UNL1        0.1509
     13 C         141.8883  140.4727  167.4454 C.ar    1  UNL1        0.0499
     14 C         142.9264  141.4298  167.9517 C.ar    1  UNL1        0.0153
     15 C         142.5223  142.5837  168.8207 C.ar    1  UNL1        0.0126
     16 C         141.0803  142.7805  169.1835 C.ar    1  UNL1        0.0575
     17 CL        140.6763  143.9344  170.0526 Cl      1  UNL1       -0.0823
     18 C         140.0422  141.8234  168.6773 C.ar    1  UNL1        0.0108
     19 C         140.4462  140.6695  167.8082 C.ar    1  UNL1        0.0213
     20 C         139.4081  139.7124  167.3020 C.3     1  UNL1        0.1649
     21 O         138.3415  139.2047  168.2265 O.3     1  UNL1       -0.3772
     22 H         138.7461  138.6555  168.9162 H       1  UNL1        0.2109
     23 C         142.2220  138.7448  158.2447 C.3     1  UNL1        0.1007
     24 C         142.1175  137.5085  157.4015 C.ar    1  UNL1        0.0129
     25 C         141.1164  137.2673  156.3109 C.ar    1  UNL1        0.0176
     26 C         141.3760  135.9062  155.7363 C.ar    1  UNL1        0.0799
     27 N         142.5376  135.3063  156.4718 N.ar    1  UNL1       -0.3038
     28 C         142.9959  136.2967  157.5010 C.ar    1  UNL1        0.0772
     29 C         143.1358  133.9537  156.2220 C.ar    1  UNL1        0.0640
     30 C         144.0851  133.3577  157.2188 C.ar    1  UNL1        0.0175
     31 C         144.6833  132.0051  156.9690 C.ar    1  UNL1        0.0053
     32 C         144.3323  131.2484  155.7224 C.ar    1  UNL1        0.0715
     33 C         143.3830  131.8444  154.7254 C.ar    1  UNL1        0.0053
     34 C         142.7848  133.1970  154.9753 C.ar    1  UNL1        0.0175
     35 C         144.9306  129.8957  155.4725 C.3     1  UNL1        0.4186
     36 F         145.5288  128.5430  155.2227 F       1  UNL1       -0.1659
     37 F         144.9903  129.6491  156.9508 F       1  UNL1       -0.1659
     38 F         144.8708  130.1423  153.9941 F       1  UNL1       -0.1659
@<TRIPOS>BOND
     1     7     8    2
     2     8     9   am
     3     9    13    1
     4    13    14   ar
     5    14    15   ar
     6    15    16   ar
     7    16    17    1
     8    16    18   ar
     9    18    19   ar
    10    19    20    1
    11    20    21    1
    12     8    10   am
    13    10     1    1
    14     1     2    1
    15     2     3    1
    16     3     4    1
    17     4    23    1
    18    23    24    1
    19    24    25   ar
    20    25    26   ar
    21    26    27   ar
    22    27    29    1
    23    29    30   ar
    24    30    31   ar
    25    31    32   ar
    26    32    35    1
    27    35    36    1
    28    35    37    1
    29    35    38    1
    30    32    33   ar
    31    33    34   ar
    32    27    28   ar
    33     4     5    1
    34     5     6    1
    35    19    13   ar
    36     6     1    1
    37    28    24   ar
    38    34    29   ar
    39     9    11    1
    40    21    22    1
    41    10    12    1
@<TRIPOS>MOLECULE
*****
 38 41 0 0 0
SMALL
GASTEIGER

@<TRIPOS>ATOM
      1 C         142.5532  139.3336  158.3416 C.3     1  UNL1        0.0758
      2 C         142.1703  139.0267  159.7591 C.3     1  UNL1        0.0370
      3 C         141.3097  139.9851  160.5278 C.3     1  UNL1        0.0741
      4 N         140.8321  141.2505  159.8790 N.3     1  UNL1       -0.2688
      5 C         141.2151  141.5573  158.4616 C.3     1  UNL1        0.0741
      6 C         142.0756  140.5989  157.6929 C.3     1  UNL1        0.0370
      7 O         141.3586  136.8303  157.1985 O.2     1  UNL1       -0.2525
      8 C         142.8165  137.1236  157.0014 C.2     1  UNL1        0.3044
      9 N         143.6770  136.1651  156.2326 N.am    1  UNL1       -0.2685
     10 N         143.4137  138.3752  157.5729 N.am    1  UNL1       -0.2902
     11 H         144.6338  136.3575  156.1033 H       1  UNL1        0.1564
     12 H         144.3705  138.5676  157.4435 H       1  UNL1        0.1509
     13 C         143.0796  134.9135  155.6611 C.ar    1  UNL1        0.0499
     14 C         142.3122  134.9689  154.3735 C.ar    1  UNL1        0.0153
     15 C         141.7149  133.7172  153.8020 C.ar    1  UNL1        0.0126
     16 C         141.8851  132.4102  154.5181 C.ar    1  UNL1        0.0575
     17 CL        141.2878  131.1586  153.9465 Cl      1  UNL1       -0.0823
     18 C         142.6525  132.3548  155.8056 C.ar    1  UNL1        0.0108
     19 C         143.2498  133.6064  156.3771 C.ar    1  UNL1        0.0213
     20 C         144.0173  133.5511  157.6648 C.3     1  UNL1        0.1649
     21 O         143.5123  134.2858  158.8711 O.3     1  UNL1       -0.3772
     22 H         143.5434  135.2409  158.7045 H       1  UNL1        0.2109
     23 C         139.9716  142.2089  160.6477 C.3     1  UNL1        0.1007
     24 C         139.3967  141.8038  161.9727 C.ar    1  UNL1        0.0129
     25 C         138.0075  141.2907  162.2111 C.ar    1  UNL1        0.0176
     26 C         137.8623  141.0105  163.6776 C.ar    1  UNL1        0.0799
     27 N         139.1617  141.3505  164.3454 N.ar    1  UNL1       -0.3038
     28 C         140.1100  141.8408  163.2917 C.ar    1  UNL1        0.0772
     29 C         139.4604  141.2227  165.8097 C.ar    1  UNL1        0.0640
     30 C         140.2012  142.3151  166.5224 C.ar    1  UNL1        0.0175
     31 C         140.4999  142.1873  167.9867 C.ar    1  UNL1        0.0053
     32 C         140.0577  140.9669  168.7386 C.ar    1  UNL1        0.0715
     33 C         139.3169  139.8744  168.0260 C.ar    1  UNL1        0.0053
     34 C         139.0183  140.0023  166.5616 C.ar    1  UNL1        0.0175
     35 C         140.3564  140.8391  170.2030 C.3     1  UNL1        0.4186
     36 F         140.6551  140.7112  171.6674 F       1  UNL1       -0.1659
     37 F         141.0624  139.5410  169.9456 F       1  UNL1       -0.1659
     38 F         139.6504  142.1373  170.4603 F       1  UNL1       -0.1659
@<TRIPOS>BOND
     1     7     8    2
     2     8     9   am
     3     9    13    1
     4    13    14   ar
     5    14    15   ar
     6    15    16   ar
     7    16    17    1
     8    16    18   ar
     9    18    19   ar
    10    19    20    1
    11    20    21    1
    12     8    10   am
    13    10     1    1
    14     1     2    1
    15     2     3    1
    16     3     4    1
    17     4    23    1
    18    23    24    1
    19    24    25   ar
    20    25    26   ar
    21    26    27   ar
    22    27    29    1
    23    29    30   ar
    24    30    31   ar
    25    31    32   ar
    26    32    35    1
    27    35    36    1
    28    35    37    1
    29    35    38    1
    30    32    33   ar
    31    33    34   ar
    32    27    28   ar
    33     4     5    1
    34     5     6    1
    35    19    13   ar
    36     6     1    1
    37    28    24   ar
    38    34    29   ar
    39     9    11    1
    40    21    22    1
    41    10    12    1
@<TRIPOS>MOLECULE
*****
 38 41 0 0 0
SMALL
GASTEIGER

@<TRIPOS>ATOM
      1 C         142.9600  140.3284  158.0887 C.3     1  UNL1        0.0758
      2 C         143.4425  140.5550  159.4908 C.3     1  UNL1        0.0370
      3 C         142.7495  141.5532  160.3702 C.3     1  UNL1        0.0741
      4 N         141.5740  142.3248  159.8475 N.3     1  UNL1       -0.2688
      5 C         141.0917  142.0981  158.4454 C.3     1  UNL1        0.0741
      6 C         141.7847  141.0999  157.5660 C.3     1  UNL1        0.0370
      7 O         141.7636  137.6086  157.6744 O.2     1  UNL1       -0.2525
      8 C         143.0548  137.9703  157.0021 C.2     1  UNL1        0.3044
      9 N         143.7478  136.9721  156.1227 N.am    1  UNL1       -0.2685
     10 N         143.6530  139.3301  157.2093 N.am    1  UNL1       -0.2902
     11 H         144.5953  137.2095  155.6815 H       1  UNL1        0.1564
     12 H         144.5005  139.5675  156.7680 H       1  UNL1        0.1509
     13 C         143.1495  135.6122  155.9156 C.ar    1  UNL1        0.0499
     14 C         143.4610  134.5018  156.8748 C.ar    1  UNL1        0.0153
     15 C         142.8627  133.1420  156.6676 C.ar    1  UNL1        0.0126
     16 C         141.9530  132.8926  155.5014 C.ar    1  UNL1        0.0575
     17 CL        141.3547  131.5327  155.2943 Cl      1  UNL1       -0.0823
     18 C         141.6415  134.0030  154.5422 C.ar    1  UNL1        0.0108
     19 C         142.2398  135.3628  154.7494 C.ar    1  UNL1        0.0213
     20 C         141.9283  136.4733  153.7902 C.3     1  UNL1        0.1649
     21 O         142.9776  137.4915  153.4555 O.3     1  UNL1       -0.3772
     22 H         143.1855  138.0135  154.2462 H       1  UNL1        0.2109
     23 C         140.8811  143.3230  160.7269 C.3     1  UNL1        0.1007
     24 C         140.0798  142.8553  161.9056 C.ar    1  UNL1        0.0129
     25 C         138.5872  142.7162  161.9578 C.ar    1  UNL1        0.0176
     26 C         138.2154  142.2195  163.3235 C.ar    1  UNL1        0.0799
     27 N         139.4784  142.0518  164.1154 N.ar    1  UNL1       -0.3038
     28 C         140.6306  142.4447  163.2391 C.ar    1  UNL1        0.0772
     29 C         139.5725  141.5748  165.5343 C.ar    1  UNL1        0.0640
     30 C         138.9581  140.2641  165.9274 C.ar    1  UNL1        0.0175
     31 C         139.0522  139.7871  167.3464 C.ar    1  UNL1        0.0053
     32 C         139.7607  140.6209  168.3724 C.ar    1  UNL1        0.0715
     33 C         140.3752  141.9317  167.9795 C.ar    1  UNL1        0.0053
     34 C         140.2810  142.4086  166.5604 C.ar    1  UNL1        0.0175
     35 C         139.8549  140.1439  169.7915 C.3     1  UNL1        0.4186
     36 F         139.9490  139.6670  171.2105 F       1  UNL1       -0.1659
     37 F         141.2754  139.7241  169.5561 F       1  UNL1       -0.1659
     38 F         138.4342  140.5639  170.0269 F       1  UNL1       -0.1659
@<TRIPOS>BOND
     1     7     8    2
     2     8     9   am
     3     9    13    1
     4    13    14   ar
     5    14    15   ar
     6    15    16   ar
     7    16    17    1
     8    16    18   ar
     9    18    19   ar
    10    19    20    1
    11    20    21    1
    12     8    10   am
    13    10     1    1
    14     1     2    1
    15     2     3    1
    16     3     4    1
    17     4    23    1
    18    23    24    1
    19    24    25   ar
    20    25    26   ar
    21    26    27   ar
    22    27    29    1
    23    29    30   ar
    24    30    31   ar
    25    31    32   ar
    26    32    35    1
    27    35    36    1
    28    35    37    1
    29    35    38    1
    30    32    33   ar
    31    33    34   ar
    32    27    28   ar
    33     4     5    1
    34     5     6    1
    35    19    13   ar
    36     6     1    1
    37    28    24   ar
    38    34    29   ar
    39     9    11    1
    40    21    22    1
    41    10    12    1
@<TRIPOS>MOLECULE
*****
 38 41 0 0 0
SMALL
GASTEIGER

@<TRIPOS>ATOM
      1 C         143.0481  135.7685  156.0566 C.3     1  UNL1        0.0758
      2 C         141.7760  135.5084  155.3055 C.3     1  UNL1        0.0370
      3 C         140.6581  136.5073  155.3553 C.3     1  UNL1        0.0741
      4 N         140.8123  137.7663  156.1561 N.3     1  UNL1       -0.2688
      5 C         142.0845  138.0263  156.9072 C.3     1  UNL1        0.0741
      6 C         143.2024  137.0274  156.8574 C.3     1  UNL1        0.0370
      7 O         142.5438  132.9133  156.8271 O.2     1  UNL1       -0.2525
      8 C         143.9139  133.3420  156.3921 C.2     1  UNL1        0.3044
      9 N         145.0318  132.3431  156.3424 N.am    1  UNL1       -0.2685
     10 N         144.1660  134.7696  156.0069 N.am    1  UNL1       -0.2902
     11 H         145.9310  132.6244  156.0569 H       1  UNL1        0.1564
     12 H         145.0652  135.0509  155.7214 H       1  UNL1        0.1509
     13 C         144.7796  130.9154  156.7276 C.ar    1  UNL1        0.0499
     14 C         144.7949  130.5147  158.1730 C.ar    1  UNL1        0.0153
     15 C         144.5428  129.0872  158.5582 C.ar    1  UNL1        0.0126
     16 C         144.2753  128.0603  157.4980 C.ar    1  UNL1        0.0575
     17 CL        144.0231  126.6327  157.8832 Cl      1  UNL1       -0.0823
     18 C         144.2600  128.4610  156.0526 C.ar    1  UNL1        0.0108
     19 C         144.5122  129.8886  155.6674 C.ar    1  UNL1        0.0213
     20 C         144.4969  130.2894  154.2220 C.3     1  UNL1        0.1649
     21 O         145.3183  129.5283  153.2240 O.3     1  UNL1       -0.3772
     22 H         146.2604  129.6542  153.4174 H       1  UNL1        0.2109
     23 C         139.6944  138.7652  156.2059 C.3     1  UNL1        0.1007
     24 C         139.2938  139.3779  157.5152 C.ar    1  UNL1        0.0129
     25 C         138.7781  140.7722  157.7149 C.ar    1  UNL1        0.0176
     26 C         138.5041  140.9599  159.1778 C.ar    1  UNL1        0.0799
     27 N         138.8506  139.6816  159.8820 N.ar    1  UNL1       -0.3038
     28 C         139.3387  138.7039  158.8544 C.ar    1  UNL1        0.0772
     29 C         138.7302  139.4259  161.3551 C.ar    1  UNL1        0.0640
     30 C         138.3195  140.5349  162.2778 C.ar    1  UNL1        0.0175
     31 C         138.1991  140.2793  163.7508 C.ar    1  UNL1        0.0053
     32 C         138.4893  138.9145  164.3013 C.ar    1  UNL1        0.0715
     33 C         138.9000  137.8053  163.3787 C.ar    1  UNL1        0.0053
     34 C         139.0204  138.0611  161.9056 C.ar    1  UNL1        0.0175
     35 C         138.3689  138.6588  165.7745 C.3     1  UNL1        0.4186
     36 F         138.2485  138.4030  167.2476 F       1  UNL1       -0.1659
     37 F         138.2836  140.1353  166.0238 F       1  UNL1       -0.1659
     38 F         138.4542  137.1821  165.5251 F       1  UNL1       -0.1659
@<TRIPOS>BOND
     1     7     8    2
     2     8     9   am
     3     9    13    1
     4    13    14   ar
     5    14    15   ar
     6    15    16   ar
     7    16    17    1
     8    16    18   ar
     9    18    19   ar
    10    19    20    1
    11    20    21    1
    12     8    10   am
    13    10     1    1
    14     1     2    1
    15     2     3    1
    16     3     4    1
    17     4    23    1
    18    23    24    1
    19    24    25   ar
    20    25    26   ar
    21    26    27   ar
    22    27    29    1
    23    29    30   ar
    24    30    31   ar
    25    31    32   ar
    26    32    35    1
    27    35    36    1
    28    35    37    1
    29    35    38    1
    30    32    33   ar
    31    33    34   ar
    32    27    28   ar
    33     4     5    1
    34     5     6    1
    35    19    13   ar
    36     6     1    1
    37    28    24   ar
    38    34    29   ar
    39     9    11    1
    40    21    22    1
    41    10    12    1
@<TRIPOS>MOLECULE
*****
 38 41 0 0 0
SMALL
GASTEIGER

@<TRIPOS>ATOM
      1 C         142.2161  138.3649  158.4165 C.3     1  UNL1        0.0758
      2 C         142.4493  138.2514  159.8940 C.3     1  UNL1        0.0370
      3 C         141.2855  138.2669  160.8402 C.3     1  UNL1        0.0741
      4 N         139.8886  138.3959  160.3090 N.3     1  UNL1       -0.2688
      5 C         139.6555  138.5094  158.8316 C.3     1  UNL1        0.0741
      6 C         140.8193  138.4939  157.8854 C.3     1  UNL1        0.0370
      7 O         143.2699  140.9392  157.2926 O.2     1  UNL1       -0.2525
      8 C         143.9068  139.6365  156.9083 C.2     1  UNL1        0.3044
      9 N         145.0706  139.6211  155.9620 N.am    1  UNL1       -0.2685
     10 N         143.3799  138.3495  157.4703 N.am    1  UNL1       -0.2902
     11 H         145.4886  138.7662  155.7098 H       1  UNL1        0.1564
     12 H         143.7979  137.4946  157.2180 H       1  UNL1        0.1509
     13 C         145.5974  140.9082  155.4001 C.ar    1  UNL1        0.0499
     14 C         146.5845  141.7207  156.1845 C.ar    1  UNL1        0.0153
     15 C         147.1113  143.0078  155.6226 C.ar    1  UNL1        0.0126
     16 C         146.6510  143.4824  154.2761 C.ar    1  UNL1        0.0575
     17 CL        147.1779  144.7695  153.7142 Cl      1  UNL1       -0.0823
     18 C         145.6639  142.6699  153.4917 C.ar    1  UNL1        0.0108
     19 C         145.1371  141.3828  154.0537 C.ar    1  UNL1        0.0213
     20 C         144.1499  140.5703  153.2692 C.3     1  UNL1        0.1649
     21 O         144.4149  139.1174  153.0066 O.3     1  UNL1       -0.3772
     22 H         145.1911  139.0290  152.4318 H       1  UNL1        0.2109
     23 C         138.7248  138.4113  161.2553 C.3     1  UNL1        0.1007
     24 C         138.6593  139.4382  162.3468 C.ar    1  UNL1        0.0129
     25 C         137.9423  140.7540  162.2774 C.ar    1  UNL1        0.0176
     26 C         138.1391  141.4586  163.5870 C.ar    1  UNL1        0.0799
     27 N         138.9776  140.5782  164.4656 N.ar    1  UNL1       -0.3038
     28 C         139.2991  139.3296  163.6991 C.ar    1  UNL1        0.0772
     29 C         139.4174  140.8915  165.8650 C.ar    1  UNL1        0.0640
     30 C         139.2109  139.8862  166.9589 C.ar    1  UNL1        0.0175
     31 C         139.6507  140.1994  168.3583 C.ar    1  UNL1        0.0053
     32 C         140.2970  141.5181  168.6639 C.ar    1  UNL1        0.0715
     33 C         140.5035  142.5235  167.5700 C.ar    1  UNL1        0.0053
     34 C         140.0637  142.2102  166.1705 C.ar    1  UNL1        0.0175
     35 C         140.7369  141.8314  170.0633 C.3     1  UNL1        0.4186
     36 F         141.1767  142.1447  171.4628 F       1  UNL1       -0.1659
     37 F         141.1468  143.2065  169.6266 F       1  UNL1       -0.1659
     38 F         140.3269  140.4562  170.5000 F       1  UNL1       -0.1659
@<TRIPOS>BOND
     1     7     8    2
     2     8     9   am
     3     9    13    1
     4    13    14   ar
     5    14    15   ar
     6    15    16   ar
     7    16    17    1
     8    16    18   ar
     9    18    19   ar
    10    19    20    1
    11    20    21    1
    12     8    10   am
    13    10     1    1
    14     1     2    1
    15     2     3    1
    16     3     4    1
    17     4    23    1
    18    23    24    1
    19    24    25   ar
    20    25    26   ar
    21    26    27   ar
    22    27    29    1
    23    29    30   ar
    24    30    31   ar
    25    31    32   ar
    26    32    35    1
    27    35    36    1
    28    35    37    1
    29    35    38    1
    30    32    33   ar
    31    33    34   ar
    32    27    28   ar
    33     4     5    1
    34     5     6    1
    35    19    13   ar
    36     6     1    1
    37    28    24   ar
    38    34    29   ar
    39     9    11    1
    40    21    22    1
    41    10    12    1
@<TRIPOS>MOLECULE
*****
 38 41 0 0 0
SMALL
GASTEIGER

@<TRIPOS>ATOM
      1 C         142.9844  139.0707  157.5716 C.3     1  UNL1        0.0758
      2 C         142.7581  138.9373  159.0485 C.3     1  UNL1        0.0370
      3 C         142.0331  140.0165  159.7966 C.3     1  UNL1        0.0741
      4 N         141.5345  141.2291  159.0678 N.3     1  UNL1       -0.2688
      5 C         141.7608  141.3624  157.5910 C.3     1  UNL1        0.0741
      6 C         142.4858  140.2832  156.8429 C.3     1  UNL1        0.0370
      7 O         141.5486  136.5490  156.8104 O.2     1  UNL1       -0.2525
      8 C         142.9916  136.7306  156.4429 C.2     1  UNL1        0.3044
      9 N         143.7166  135.6514  155.6948 N.am    1  UNL1       -0.2685
     10 N         143.7094  137.9914  156.8235 N.am    1  UNL1       -0.2902
     11 H         144.6636  135.7706  155.4536 H       1  UNL1        0.1564
     12 H         144.6565  138.1106  156.5823 H       1  UNL1        0.1509
     13 C         142.9986  134.3905  155.3142 C.ar    1  UNL1        0.0499
     14 C         142.1467  134.3558  154.0801 C.ar    1  UNL1        0.0153
     15 C         141.4288  133.0950  153.6996 C.ar    1  UNL1        0.0126
     16 C         141.5628  131.8688  154.5531 C.ar    1  UNL1        0.0575
     17 CL        140.8448  130.6079  154.1725 Cl      1  UNL1       -0.0823
     18 C         142.4147  131.9035  155.7872 C.ar    1  UNL1        0.0108
     19 C         143.1326  133.1643  156.1677 C.ar    1  UNL1        0.0213
     20 C         143.9846  133.1990  157.4019 C.3     1  UNL1        0.1649
     21 O         143.5807  134.0513  158.5683 O.3     1  UNL1       -0.3772
     22 H         143.6233  134.9868  158.3153 H       1  UNL1        0.2109
     23 C         140.8095  142.3084  159.8159 C.3     1  UNL1        0.1007
     24 C         141.3510  142.8091  161.1221 C.ar    1  UNL1        0.0129
     25 C         142.2767  143.9753  161.3036 C.ar    1  UNL1        0.0176
     26 C         142.5597  144.1186  162.7698 C.ar    1  UNL1        0.0799
     27 N         141.8088  143.0409  163.4943 N.ar    1  UNL1       -0.3038
     28 C         141.0618  142.2316  162.4759 C.ar    1  UNL1        0.0772
     29 C         141.8055  142.8126  164.9767 C.ar    1  UNL1        0.0640
     30 C         140.5450  143.0154  165.7641 C.ar    1  UNL1        0.0175
     31 C         140.5418  142.7871  167.2465 C.ar    1  UNL1        0.0053
     32 C         141.7990  142.3559  167.9418 C.ar    1  UNL1        0.0715
     33 C         143.0596  142.1530  167.1544 C.ar    1  UNL1        0.0053
     34 C         143.0628  142.3813  165.6719 C.ar    1  UNL1        0.0175
     35 C         141.7958  142.1276  169.4243 C.3     1  UNL1        0.4186
     36 F         141.7925  141.8992  170.9068 F       1  UNL1       -0.1659
     37 F         140.5230  142.9124  169.5424 F       1  UNL1       -0.1659
     38 F         143.0686  141.3427  169.3062 F       1  UNL1       -0.1659
@<TRIPOS>BOND
     1     7     8    2
     2     8     9   am
     3     9    13    1
     4    13    14   ar
     5    14    15   ar
     6    15    16   ar
     7    16    17    1
     8    16    18   ar
     9    18    19   ar
    10    19    20    1
    11    20    21    1
    12     8    10   am
    13    10     1    1
    14     1     2    1
    15     2     3    1
    16     3     4    1
    17     4    23    1
    18    23    24    1
    19    24    25   ar
    20    25    26   ar
    21    26    27   ar
    22    27    29    1
    23    29    30   ar
    24    30    31   ar
    25    31    32   ar
    26    32    35    1
    27    35    36    1
    28    35    37    1
    29    35    38    1
    30    32    33   ar
    31    33    34   ar
    32    27    28   ar
    33     4     5    1
    34     5     6    1
    35    19    13   ar
    36     6     1    1
    37    28    24   ar
    38    34    29   ar
    39     9    11    1
    40    21    22    1
    41    10    12    1
@<TRIPOS>MOLECULE
*****
 38 41 0 0 0
SMALL
GASTEIGER

@<TRIPOS>ATOM
      1 C         138.1111  139.7894  160.2669 C.3     1  UNL1        0.0758
      2 C         139.0846  138.6569  160.1260 C.3     1  UNL1        0.0370
      3 C         139.6901  138.3503  158.7883 C.3     1  UNL1        0.0741
      4 N         139.3221  139.1763  157.5915 N.3     1  UNL1       -0.2688
      5 C         138.3487  140.3088  157.7324 C.3     1  UNL1        0.0741
      6 C         137.7432  140.6154  159.0701 C.3     1  UNL1        0.0370
      7 O         139.8761  140.5184  162.5807 O.2     1  UNL1       -0.2525
      8 C         138.3881  140.4605  162.7615 C.2     1  UNL1        0.3044
      9 N         137.7827  140.7670  164.0992 N.am    1  UNL1       -0.2685
     10 N         137.5057  140.0960  161.6046 N.am    1  UNL1       -0.2902
     11 H         136.8061  140.7290  164.2178 H       1  UNL1        0.1564
     12 H         136.5291  140.0579  161.7233 H       1  UNL1        0.1509
     13 C         138.6652  141.1315  165.2561 C.ar    1  UNL1        0.0499
     14 C         139.2779  142.4986  165.3304 C.ar    1  UNL1        0.0153
     15 C         140.1604  142.8630  166.4872 C.ar    1  UNL1        0.0126
     16 C         140.4301  141.8604  167.5698 C.ar    1  UNL1        0.0575
     17 CL        141.3127  142.2249  168.7267 Cl      1  UNL1       -0.0823
     18 C         139.8174  140.4933  167.4955 C.ar    1  UNL1        0.0108
     19 C         138.9349  140.1289  166.3386 C.ar    1  UNL1        0.0213
     20 C         138.3221  138.7617  166.2643 C.3     1  UNL1        0.1649
     21 O         138.6544  137.8522  165.1187 O.3     1  UNL1       -0.3772
     22 H         138.3086  138.2301  164.2950 H       1  UNL1        0.2109
     23 C         139.9275  138.8698  156.2538 C.3     1  UNL1        0.1007
     24 C         141.0644  137.8966  156.1503 C.ar    1  UNL1        0.0129
     25 C         142.5217  138.2466  156.0900 C.ar    1  UNL1        0.0176
     26 C         143.3016  136.9690  155.9914 C.ar    1  UNL1        0.0799
     27 N         142.3260  135.8294  155.9909 N.ar    1  UNL1       -0.3038
     28 C         140.9434  136.4028  156.0891 C.ar    1  UNL1        0.0772
     29 C         142.6724  134.3725  155.9070 C.ar    1  UNL1        0.0640
     30 C         144.0173  133.8934  156.3673 C.ar    1  UNL1        0.0175
     31 C         144.3636  132.4364  156.2833 C.ar    1  UNL1        0.0053
     32 C         143.3651  131.4583  155.7390 C.ar    1  UNL1        0.0715
     33 C         142.0201  131.9373  155.2787 C.ar    1  UNL1        0.0053
     34 C         141.6739  133.3944  155.3627 C.ar    1  UNL1        0.0175
     35 C         143.7114  130.0013  155.6550 C.3     1  UNL1        0.4186
     36 F         144.0578  128.5442  155.5711 F       1  UNL1       -0.1659
     37 F         144.8831  130.3303  154.7784 F       1  UNL1       -0.1659
     38 F         142.5396  129.6722  156.5318 F       1  UNL1       -0.1659
@<TRIPOS>BOND
     1     7     8    2
     2     8     9   am
     3     9    13    1
     4    13    14   ar
     5    14    15   ar
     6    15    16   ar
     7    16    17    1
     8    16    18   ar
     9    18    19   ar
    10    19    20    1
    11    20    21    1
    12     8    10   am
    13    10     1    1
    14     1     2    1
    15     2     3    1
    16     3     4    1
    17     4    23    1
    18    23    24    1
    19    24    25   ar
    20    25    26   ar
    21    26    27   ar
    22    27    29    1
    23    29    30   ar
    24    30    31   ar
    25    31    32   ar
    26    32    35    1
    27    35    36    1
    28    35    37    1
    29    35    38    1
    30    32    33   ar
    31    33    34   ar
    32    27    28   ar
    33     4     5    1
    34     5     6    1
    35    19    13   ar
    36     6     1    1
    37    28    24   ar
    38    34    29   ar
    39     9    11    1
    40    21    22    1
    41    10    12    1
@<TRIPOS>MOLECULE
*****
 38 41 0 0 0
SMALL
GASTEIGER

@<TRIPOS>ATOM
      1 C         138.0482  139.8680  160.1710 C.3     1  UNL1        0.0758
      2 C         139.0152  138.7245  160.0839 C.3     1  UNL1        0.0370
      3 C         139.6109  138.3451  158.7606 C.3     1  UNL1        0.0741
      4 N         139.2395  139.1091  157.5243 N.3     1  UNL1       -0.2688
      5 C         138.2725  140.2525  157.6113 C.3     1  UNL1        0.0741
      6 C         137.6769  140.6319  158.9347 C.3     1  UNL1        0.0370
      7 O         139.8332  140.6729  162.4438 O.2     1  UNL1       -0.2525
      8 C         138.3450  140.6499  162.6307 C.2     1  UNL1        0.3044
      9 N         137.7494  141.0293  163.9541 N.am    1  UNL1       -0.2685
     10 N         137.4526  140.2474  161.4943 N.am    1  UNL1       -0.2902
     11 H         136.7727  141.0142  164.0768 H       1  UNL1        0.1564
     12 H         136.4759  140.2323  161.6170 H       1  UNL1        0.1509
     13 C         138.6420  141.4318  165.0905 C.ar    1  UNL1        0.0499
     14 C         139.0776  140.4112  166.0997 C.ar    1  UNL1        0.0153
     15 C         139.9701  140.8137  167.2361 C.ar    1  UNL1        0.0126
     16 C         140.4270  142.2368  167.3632 C.ar    1  UNL1        0.0575
     17 CL        141.3195  142.6393  168.4997 Cl      1  UNL1       -0.0823
     18 C         139.9913  143.2574  166.3540 C.ar    1  UNL1        0.0108
     19 C         139.0988  142.8549  165.2177 C.ar    1  UNL1        0.0213
     20 C         138.6631  143.8754  164.2084 C.3     1  UNL1        0.1649
     21 O         139.0388  143.7112  162.7655 O.3     1  UNL1       -0.3772
     22 H         140.0010  143.7899  162.6709 H       1  UNL1        0.2109
     23 C         139.8351  138.7297  156.2009 C.3     1  UNL1        0.1007
     24 C         141.0851  137.9020  156.1507 C.ar    1  UNL1        0.0129
     25 C         142.4899  138.4273  156.1272 C.ar    1  UNL1        0.0176
     26 C         143.4229  137.2537  156.0772 C.ar    1  UNL1        0.0799
     27 N         142.5945  136.0031  156.0699 N.ar    1  UNL1       -0.3038
     28 C         141.1497  136.4038  156.1153 C.ar    1  UNL1        0.0772
     29 C         143.1189  134.5985  156.0249 C.ar    1  UNL1        0.0640
     30 C         142.8415  133.7321  154.8323 C.ar    1  UNL1        0.0175
     31 C         143.3659  132.3276  154.7873 C.ar    1  UNL1        0.0053
     32 C         144.1677  131.7892  155.9351 C.ar    1  UNL1        0.0715
     33 C         144.4451  132.6556  157.1279 C.ar    1  UNL1        0.0053
     34 C         143.9207  134.0602  157.1727 C.ar    1  UNL1        0.0175
     35 C         144.6921  130.3846  155.8902 C.3     1  UNL1        0.4186
     36 F         145.2165  128.9799  155.8453 F       1  UNL1       -0.1659
     37 F         144.5936  130.3001  157.3845 F       1  UNL1       -0.1659
     38 F         144.7906  130.4692  154.3958 F       1  UNL1       -0.1659
@<TRIPOS>BOND
     1     7     8    2
     2     8     9   am
     3     9    13    1
     4    13    14   ar
     5    14    15   ar
     6    15    16   ar
     7    16    17    1
     8    16    18   ar
     9    18    19   ar
    10    19    20    1
    11    20    21    1
    12     8    10   am
    13    10     1    1
    14     1     2    1
    15     2     3    1
    16     3     4    1
    17     4    23    1
    18    23    24    1
    19    24    25   ar
    20    25    26   ar
    21    26    27   ar
    22    27    29    1
    23    29    30   ar
    24    30    31   ar
    25    31    32   ar
    26    32    35    1
    27    35    36    1
    28    35    37    1
    29    35    38    1
    30    32    33   ar
    31    33    34   ar
    32    27    28   ar
    33     4     5    1
    34     5     6    1
    35    19    13   ar
    36     6     1    1
    37    28    24   ar
    38    34    29   ar
    39     9    11    1
    40    21    22    1
    41    10    12    1
