@<TRIPOS>MOLECULE
*****
 38 42 0 0 0
SMALL
GASTEIGER

@<TRIPOS>ATOM
      1 C         138.6033  141.8816  161.6709 C.ar    1  UNL1        0.1233
      2 C         139.3654  140.7442  162.2839 C.ar    1  UNL1        0.1181
      3 N         138.5834  140.2439  163.4621 N.ar    1  UNL1       -0.2208
      4 N         137.3380  141.0720  163.5773 N.ar    1  UNL1       -0.0633
      5 N         137.3503  142.0841  162.4703 N.ar    1  UNL1       -0.1287
      6 C         138.9490  143.0834  157.9045 C.ar    1  UNL1        0.1547
      7 C         138.5315  142.2883  159.1059 C.ar    1  UNL1        0.0400
      8 C         139.0209  142.6768  160.4695 C.ar    1  UNL1        0.0241
      9 C         139.9278  143.8604  160.6318 C.ar    1  UNL1        0.0033
     10 C         140.3454  144.6556  159.4304 C.ar    1  UNL1        0.0207
     11 C         139.8560  144.2670  158.0668 C.ar    1  UNL1        0.0994
     12 N         140.2736  145.0623  156.8653 N.ar    1  UNL1       -0.2839
     13 C         141.4048  144.7303  155.9380 C.ar    1  UNL1        0.1826
     14 N         141.4636  145.7919  154.8799 N.ar    1  UNL1       -0.2280
     15 C         140.3686  146.7800  155.1533 C.ar    1  UNL1        0.0786
     16 C         140.0628  148.0041  154.3421 C.3     1  UNL1        0.0538
     17 C         139.6331  146.3290  156.3804 C.ar    1  UNL1        0.0963
     18 C         137.1634  143.2451  156.0243 C.3     1  UNL1        0.2525
     19 O         138.4597  142.6949  156.5408 O.3     1  UNL1       -0.4700
     20 C         138.9776  139.1138  164.3663 C.3     1  UNL1        0.2138
     21 C         138.8814  139.2754  165.8544 C.2     1  UNL1        0.2510
     22 O         137.7370  138.6590  166.6033 O.2     1  UNL1       -0.2727
     23 N         139.9293  140.0533  166.5937 N.am    1  UNL1       -0.2717
     24 C         141.0736  140.6696  165.8448 C.3     1  UNL1        0.0983
     25 C         142.3514  139.9047  165.6656 C.3     1  UNL1        0.0264
     26 C         140.9401  142.0507  165.2750 C.ar    1  UNL1       -0.0043
     27 C         139.7102  142.8622  165.5558 C.ar    1  UNL1       -0.0027
     28 C         139.5767  144.2433  164.9860 C.ar    1  UNL1       -0.0003
     29 C         140.6732  144.8129  164.1354 C.ar    1  UNL1       -0.0000
     30 C         141.9030  144.0014  163.8546 C.ar    1  UNL1       -0.0003
     31 C         142.0365  142.6203  164.4244 C.ar    1  UNL1       -0.0027
     32 C         139.8331  140.2149  168.0819 C.3     1  UNL1        0.1204
     33 C         140.8014  141.1043  168.8039 C.ar    1  UNL1       -0.0023
     34 C         140.4245  142.5207  169.1228 C.ar    1  UNL1       -0.0026
     35 C         141.3929  143.4101  169.8448 C.ar    1  UNL1       -0.0003
     36 C         142.7381  142.8831  170.2479 C.ar    1  UNL1       -0.0000
     37 C         143.1150  141.4666  169.9290 C.ar    1  UNL1       -0.0003
     38 C         142.1467  140.5773  169.2070 C.ar    1  UNL1       -0.0026
@<TRIPOS>BOND
     1    18    19    1
     2    19     6    1
     3     6     7   ar
     4     7     8   ar
     5     8     1    1
     6     1     2   ar
     7     2     3   ar
     8     3    20    1
     9    20    21    1
    10    21    22    2
    11    21    23   am
    12    23    32    1
    13    32    33    1
    14    33    34   ar
    15    34    35   ar
    16    35    36   ar
    17    36    37   ar
    18    37    38   ar
    19    23    24    1
    20    24    25    1
    21    24    26    1
    22    26    27   ar
    23    27    28   ar
    24    28    29   ar
    25    29    30   ar
    26    30    31   ar
    27     3     4   ar
    28     4     5   ar
    29     8     9   ar
    30     9    10   ar
    31    10    11   ar
    32    11    12    1
    33    12    13   ar
    34    13    14   ar
    35    14    15   ar
    36    15    16    1
    37    15    17   ar
    38    11     6   ar
    39    17    12   ar
    40     5     1   ar
    41    38    33   ar
    42    31    26   ar
@<TRIPOS>MOLECULE
*****
 38 42 0 0 0
SMALL
GASTEIGER

@<TRIPOS>ATOM
      1 C         140.9130  144.1872  160.4180 C.ar    1  UNL1        0.1233
      2 C         139.8830  143.3669  161.1364 C.ar    1  UNL1        0.1181
      3 N         138.9903  144.3041  161.8945 N.ar    1  UNL1       -0.2208
      4 N         139.4687  145.7038  161.6448 N.ar    1  UNL1       -0.0633
      5 N         140.6570  145.6315  160.7323 N.ar    1  UNL1       -0.1287
      6 C         143.0313  143.3211  157.1757 C.ar    1  UNL1        0.1547
      7 C         141.9373  143.8517  158.0541 C.ar    1  UNL1        0.0400
      8 C         142.0071  143.6565  159.5397 C.ar    1  UNL1        0.0241
      9 C         143.1709  142.9307  160.1469 C.ar    1  UNL1        0.0033
     10 C         144.2648  142.4001  159.2686 C.ar    1  UNL1        0.0207
     11 C         144.1951  142.5952  157.7829 C.ar    1  UNL1        0.0994
     12 N         145.2891  142.0645  156.9046 N.ar    1  UNL1       -0.2839
     13 C         145.1658  140.9308  155.9302 C.ar    1  UNL1        0.1826
     14 N         146.4990  140.7400  155.2698 N.ar    1  UNL1       -0.2280
     15 C         147.4464  141.7559  155.8361 C.ar    1  UNL1        0.0786
     16 C         148.8883  141.9237  155.4583 C.3     1  UNL1        0.0538
     17 C         146.6986  142.5745  156.8464 C.ar    1  UNL1        0.0963
     18 C         142.6930  144.8793  155.1245 C.3     1  UNL1        0.2525
     19 O         142.9615  143.5162  155.6901 O.3     1  UNL1       -0.4700
     20 C         137.8240  143.9109  162.7519 C.3     1  UNL1        0.2138
     21 C         137.8161  142.5793  163.4426 C.2     1  UNL1        0.2510
     22 O         136.9682  141.4628  162.9091 O.2     1  UNL1       -0.2727
     23 N         138.6560  142.3643  164.6666 N.am    1  UNL1       -0.2717
     24 C         139.5038  143.4809  165.2000 C.3     1  UNL1        0.0983
     25 C         138.8570  144.7244  165.7341 C.3     1  UNL1        0.0264
     26 C         140.9984  143.3539  165.1994 C.ar    1  UNL1       -0.0043
     27 C         141.6836  142.5535  166.2670 C.ar    1  UNL1       -0.0027
     28 C         143.1782  142.4266  166.2663 C.ar    1  UNL1       -0.0003
     29 C         143.9876  143.1002  165.1980 C.ar    1  UNL1       -0.0000
     30 C         143.3024  143.9006  164.1304 C.ar    1  UNL1       -0.0003
     31 C         141.8078  144.0275  164.1311 C.ar    1  UNL1       -0.0027
     32 C         138.6481  141.0327  165.3572 C.3     1  UNL1        0.1204
     33 C         139.4155  139.8821  164.7766 C.ar    1  UNL1       -0.0023
     34 C         140.5155  140.1364  163.7891 C.ar    1  UNL1       -0.0026
     35 C         141.2830  138.9857  163.2084 C.ar    1  UNL1       -0.0003
     36 C         140.9504  137.5808  163.6154 C.ar    1  UNL1       -0.0000
     37 C         139.8504  137.3266  164.6029 C.ar    1  UNL1       -0.0003
     38 C         139.0829  138.4772  165.1835 C.ar    1  UNL1       -0.0026
@<TRIPOS>BOND
     1    18    19    1
     2    19     6    1
     3     6     7   ar
     4     7     8   ar
     5     8     1    1
     6     1     2   ar
     7     2     3   ar
     8     3    20    1
     9    20    21    1
    10    21    22    2
    11    21    23   am
    12    23    32    1
    13    32    33    1
    14    33    34   ar
    15    34    35   ar
    16    35    36   ar
    17    36    37   ar
    18    37    38   ar
    19    23    24    1
    20    24    25    1
    21    24    26    1
    22    26    27   ar
    23    27    28   ar
    24    28    29   ar
    25    29    30   ar
    26    30    31   ar
    27     3     4   ar
    28     4     5   ar
    29     8     9   ar
    30     9    10   ar
    31    10    11   ar
    32    11    12    1
    33    12    13   ar
    34    13    14   ar
    35    14    15   ar
    36    15    16    1
    37    15    17   ar
    38    11     6   ar
    39    17    12   ar
    40     5     1   ar
    41    38    33   ar
    42    31    26   ar
@<TRIPOS>MOLECULE
*****
 38 42 0 0 0
SMALL
GASTEIGER

@<TRIPOS>ATOM
      1 C         142.8423  137.2876  157.5207 C.ar    1  UNL1        0.1233
      2 C         142.3668  137.6256  158.9026 C.ar    1  UNL1        0.1181
      3 N         142.8590  139.0022  159.2384 N.ar    1  UNL1       -0.2208
      4 N         143.6387  139.5150  158.0641 N.ar    1  UNL1       -0.0633
      5 N         143.6284  138.4553  157.0025 N.ar    1  UNL1       -0.1287
      6 C         142.9782  133.4563  156.4948 C.ar    1  UNL1        0.1547
      7 C         143.2424  134.7371  157.2294 C.ar    1  UNL1        0.0400
      8 C         142.5781  136.0068  156.7860 C.ar    1  UNL1        0.0241
      9 C         141.6497  135.9957  155.6079 C.ar    1  UNL1        0.0033
     10 C         141.3856  134.7149  154.8733 C.ar    1  UNL1        0.0207
     11 C         142.0499  133.4452  155.3167 C.ar    1  UNL1        0.0994
     12 N         141.7857  132.1644  154.5820 N.ar    1  UNL1       -0.2839
     13 C         142.5577  131.6482  153.4041 C.ar    1  UNL1        0.1826
     14 N         141.9523  130.3397  152.9904 N.ar    1  UNL1       -0.2280
     15 C         140.8059  130.0471  153.9126 C.ar    1  UNL1        0.0786
     16 C         139.9185  128.8390  153.8603 C.3     1  UNL1        0.0538
     17 C         140.7030  131.1748  154.8962 C.ar    1  UNL1        0.0963
     18 C         144.9572  131.7800  156.3415 C.3     1  UNL1        0.2525
     19 O         143.6425  132.1866  156.9382 O.3     1  UNL1       -0.4700
     20 C         142.6144  139.7370  160.5231 C.3     1  UNL1        0.2138
     21 C         142.5999  138.9897  161.8236 C.2     1  UNL1        0.2510
     22 O         143.8860  138.5032  162.4233 O.2     1  UNL1       -0.2727
     23 N         141.2997  138.7288  162.5243 N.am    1  UNL1       -0.2717
     24 C         140.0137  139.2153  161.9245 C.3     1  UNL1        0.0983
     25 C         139.3721  138.4510  160.8046 C.3     1  UNL1        0.0264
     26 C         139.3694  140.4660  162.4446 C.ar    1  UNL1       -0.0043
     27 C         140.1752  141.7237  162.5814 C.ar    1  UNL1       -0.0027
     28 C         139.5308  142.9744  163.1015 C.ar    1  UNL1       -0.0003
     29 C         138.0806  142.9673  163.4847 C.ar    1  UNL1       -0.0000
     30 C         137.2748  141.7096  163.3479 C.ar    1  UNL1       -0.0003
     31 C         137.9192  140.4589  162.8278 C.ar    1  UNL1       -0.0027
     32 C         141.2853  137.9814  163.8248 C.3     1  UNL1        0.1204
     33 C         140.3159  138.3690  164.9019 C.ar    1  UNL1       -0.0023
     34 C         140.6123  139.5393  165.7921 C.ar    1  UNL1       -0.0026
     35 C         139.6428  139.9269  166.8692 C.ar    1  UNL1       -0.0003
     36 C         138.3770  139.1441  167.0560 C.ar    1  UNL1       -0.0000
     37 C         138.0806  137.9738  166.1658 C.ar    1  UNL1       -0.0003
     38 C         139.0500  137.5863  165.0887 C.ar    1  UNL1       -0.0026
@<TRIPOS>BOND
     1    18    19    1
     2    19     6    1
     3     6     7   ar
     4     7     8   ar
     5     8     1    1
     6     1     2   ar
     7     2     3   ar
     8     3    20    1
     9    20    21    1
    10    21    22    2
    11    21    23   am
    12    23    32    1
    13    32    33    1
    14    33    34   ar
    15    34    35   ar
    16    35    36   ar
    17    36    37   ar
    18    37    38   ar
    19    23    24    1
    20    24    25    1
    21    24    26    1
    22    26    27   ar
    23    27    28   ar
    24    28    29   ar
    25    29    30   ar
    26    30    31   ar
    27     3     4   ar
    28     4     5   ar
    29     8     9   ar
    30     9    10   ar
    31    10    11   ar
    32    11    12    1
    33    12    13   ar
    34    13    14   ar
    35    14    15   ar
    36    15    16    1
    37    15    17   ar
    38    11     6   ar
    39    17    12   ar
    40     5     1   ar
    41    38    33   ar
    42    31    26   ar
@<TRIPOS>MOLECULE
*****
 38 42 0 0 0
SMALL
GASTEIGER

@<TRIPOS>ATOM
      1 C         140.6988  144.2126  160.3888 C.ar    1  UNL1        0.1233
      2 C         139.7241  143.3754  161.1628 C.ar    1  UNL1        0.1181
      3 N         138.8556  144.2981  161.9655 N.ar    1  UNL1       -0.2208
      4 N         139.2935  145.7056  161.6876 N.ar    1  UNL1       -0.0633
      5 N         140.4326  145.6528  160.7131 N.ar    1  UNL1       -0.1287
      6 C         143.5139  141.8968  158.8197 C.ar    1  UNL1        0.1547
      7 C         142.4584  142.4097  159.7539 C.ar    1  UNL1        0.0400
      8 C         141.7543  143.6998  159.4544 C.ar    1  UNL1        0.0241
      9 C         142.1056  144.4771  158.2206 C.ar    1  UNL1        0.0033
     10 C         143.1611  143.9642  157.2863 C.ar    1  UNL1        0.0207
     11 C         143.8652  142.6741  157.5858 C.ar    1  UNL1        0.0994
     12 N         144.9208  142.1613  156.6515 N.ar    1  UNL1       -0.2839
     13 C         144.6859  141.3177  155.4336 C.ar    1  UNL1        0.1826
     14 N         146.0164  141.0370  154.8005 N.ar    1  UNL1       -0.2280
     15 C         147.0737  141.7072  155.6270 C.ar    1  UNL1        0.0786
     16 C         148.5490  141.6863  155.3570 C.3     1  UNL1        0.0538
     17 C         146.3965  142.4020  156.7710 C.ar    1  UNL1        0.0963
     18 C         143.6383  139.6503  160.1188 C.3     1  UNL1        0.2525
     19 O         144.2180  140.6067  159.1192 O.3     1  UNL1       -0.4700
     20 C         137.7443  143.8857  162.8847 C.3     1  UNL1        0.2138
     21 C         137.7741  142.5363  163.5392 C.2     1  UNL1        0.2510
     22 O         136.9286  141.4216  162.9981 O.2     1  UNL1       -0.2727
     23 N         138.6492  142.3016  164.7345 N.am    1  UNL1       -0.2717
     24 C         139.4946  143.4163  165.2755 C.3     1  UNL1        0.0983
     25 C         138.8452  144.6084  165.9138 C.3     1  UNL1        0.0264
     26 C         140.9894  143.3391  165.1783 C.ar    1  UNL1       -0.0043
     27 C         141.7107  144.0916  164.0997 C.ar    1  UNL1       -0.0027
     28 C         143.2056  144.0143  164.0025 C.ar    1  UNL1       -0.0003
     29 C         143.9791  143.1846  164.9840 C.ar    1  UNL1       -0.0000
     30 C         143.2578  142.4321  166.0626 C.ar    1  UNL1       -0.0003
     31 C         141.7629  142.5094  166.1598 C.ar    1  UNL1       -0.0027
     32 C         138.6789  140.9522  165.3890 C.3     1  UNL1        0.1204
     33 C         139.5075  139.8502  164.7982 C.ar    1  UNL1       -0.0023
     34 C         139.3709  138.4490  165.3160 C.ar    1  UNL1       -0.0026
     35 C         140.1995  137.3470  164.7252 C.ar    1  UNL1       -0.0003
     36 C         141.1646  137.6461  163.6166 C.ar    1  UNL1       -0.0000
     37 C         141.3012  139.0472  163.0988 C.ar    1  UNL1       -0.0003
     38 C         140.4726  140.1493  163.6896 C.ar    1  UNL1       -0.0026
@<TRIPOS>BOND
     1    18    19    1
     2    19     6    1
     3     6     7   ar
     4     7     8   ar
     5     8     1    1
     6     1     2   ar
     7     2     3   ar
     8     3    20    1
     9    20    21    1
    10    21    22    2
    11    21    23   am
    12    23    32    1
    13    32    33    1
    14    33    34   ar
    15    34    35   ar
    16    35    36   ar
    17    36    37   ar
    18    37    38   ar
    19    23    24    1
    20    24    25    1
    21    24    26    1
    22    26    27   ar
    23    27    28   ar
    24    28    29   ar
    25    29    30   ar
    26    30    31   ar
    27     3     4   ar
    28     4     5   ar
    29     8     9   ar
    30     9    10   ar
    31    10    11   ar
    32    11    12    1
    33    12    13   ar
    34    13    14   ar
    35    14    15   ar
    36    15    16    1
    37    15    17   ar
    38    11     6   ar
    39    17    12   ar
    40     5     1   ar
    41    38    33   ar
    42    31    26   ar
@<TRIPOS>MOLECULE
*****
 38 42 0 0 0
SMALL
GASTEIGER

@<TRIPOS>ATOM
      1 C         140.8158  138.9996  161.5079 C.ar    1  UNL1        0.1233
      2 C         139.9329  139.9074  162.3117 C.ar    1  UNL1        0.1181
      3 N         139.2996  139.0932  163.4007 N.ar    1  UNL1       -0.2208
      4 N         139.7912  137.6820  163.2700 N.ar    1  UNL1       -0.0633
      5 N         140.7282  137.6242  162.1001 N.ar    1  UNL1       -0.1287
      6 C         142.9197  138.7542  158.1517 C.ar    1  UNL1        0.1547
      7 C         142.0941  138.3566  159.3393 C.ar    1  UNL1        0.0400
      8 C         141.6414  139.3972  160.3203 C.ar    1  UNL1        0.0241
      9 C         142.0143  140.8353  160.1137 C.ar    1  UNL1        0.0033
     10 C         142.8399  141.2329  158.9262 C.ar    1  UNL1        0.0207
     11 C         143.2926  140.1923  157.9452 C.ar    1  UNL1        0.0994
     12 N         144.1182  140.5900  156.7576 N.ar    1  UNL1       -0.2839
     13 C         143.6763  140.5538  155.3246 C.ar    1  UNL1        0.1826
     14 N         144.8156  141.0350  154.4759 N.ar    1  UNL1       -0.2280
     15 C         145.9617  141.3687  155.3844 C.ar    1  UNL1        0.0786
     16 C         147.3033  141.8865  154.9576 C.3     1  UNL1        0.0538
     17 C         145.5306  141.0936  156.7945 C.ar    1  UNL1        0.0963
     18 C         142.7218  136.3622  157.1573 C.3     1  UNL1        0.2525
     19 O         143.3724  137.7137  157.1708 O.3     1  UNL1       -0.4700
     20 C         138.3428  139.6010  164.4384 C.3     1  UNL1        0.2138
     21 C         138.6447  139.4086  165.8951 C.2     1  UNL1        0.2510
     22 O         137.8465  138.4289  166.7034 O.2     1  UNL1       -0.2727
     23 N         139.7445  140.1959  166.5435 N.am    1  UNL1       -0.2717
     24 C         140.5425  141.1756  165.7351 C.3     1  UNL1        0.0983
     25 C         139.9651  142.5193  165.4018 C.3     1  UNL1        0.0264
     26 C         141.9179  140.8116  165.2599 C.ar    1  UNL1       -0.0043
     27 C         142.8619  141.8841  164.8032 C.ar    1  UNL1       -0.0027
     28 C         144.2373  141.5200  164.3281 C.ar    1  UNL1       -0.0003
     29 C         144.6686  140.0834  164.3097 C.ar    1  UNL1       -0.0000
     30 C         143.7246  139.0110  164.7664 C.ar    1  UNL1       -0.0003
     31 C         142.3492  139.3751  165.2415 C.ar    1  UNL1       -0.0027
     32 C         140.0463  140.0036  168.0001 C.3     1  UNL1        0.1204
     33 C         140.9470  140.9681  168.7131 C.ar    1  UNL1       -0.0023
     34 C         140.4061  142.2796  169.2003 C.ar    1  UNL1       -0.0026
     35 C         141.3068  143.2442  169.9133 C.ar    1  UNL1       -0.0003
     36 C         142.7485  142.8972  170.1392 C.ar    1  UNL1       -0.0000
     37 C         143.2895  141.5857  169.6521 C.ar    1  UNL1       -0.0003
     38 C         142.3888  140.6212  168.9391 C.ar    1  UNL1       -0.0026
@<TRIPOS>BOND
     1    18    19    1
     2    19     6    1
     3     6     7   ar
     4     7     8   ar
     5     8     1    1
     6     1     2   ar
     7     2     3   ar
     8     3    20    1
     9    20    21    1
    10    21    22    2
    11    21    23   am
    12    23    32    1
    13    32    33    1
    14    33    34   ar
    15    34    35   ar
    16    35    36   ar
    17    36    37   ar
    18    37    38   ar
    19    23    24    1
    20    24    25    1
    21    24    26    1
    22    26    27   ar
    23    27    28   ar
    24    28    29   ar
    25    29    30   ar
    26    30    31   ar
    27     3     4   ar
    28     4     5   ar
    29     8     9   ar
    30     9    10   ar
    31    10    11   ar
    32    11    12    1
    33    12    13   ar
    34    13    14   ar
    35    14    15   ar
    36    15    16    1
    37    15    17   ar
    38    11     6   ar
    39    17    12   ar
    40     5     1   ar
    41    38    33   ar
    42    31    26   ar
@<TRIPOS>MOLECULE
*****
 38 42 0 0 0
SMALL
GASTEIGER

@<TRIPOS>ATOM
      1 C         142.7492  142.1464  160.9283 C.ar    1  UNL1        0.1233
      2 C         142.3887  142.1002  162.3836 C.ar    1  UNL1        0.1181
      3 N         142.6352  143.4605  162.9657 N.ar    1  UNL1       -0.2208
      4 N         143.1481  144.3475  161.8701 N.ar    1  UNL1       -0.0633
      5 N         143.2185  143.5353  160.6110 N.ar    1  UNL1       -0.1287
      6 C         143.5680  139.7343  157.8851 C.ar    1  UNL1        0.1547
      7 C         143.6605  140.8763  158.8531 C.ar    1  UNL1        0.0400
      8 C         142.6566  141.0043  159.9603 C.ar    1  UNL1        0.0241
      9 C         141.5602  139.9902  160.0994 C.ar    1  UNL1        0.0033
     10 C         141.4677  138.8481  159.1314 C.ar    1  UNL1        0.0207
     11 C         142.4716  138.7202  158.0242 C.ar    1  UNL1        0.0994
     12 N         142.3791  137.5780  157.0562 N.ar    1  UNL1       -0.2839
     13 C         141.8248  137.6450  155.6640 C.ar    1  UNL1        0.1826
     14 N         141.9277  136.2768  155.0578 N.ar    1  UNL1       -0.2280
     15 C         142.5456  135.3642  156.0754 C.ar    1  UNL1        0.0786
     16 C         142.8340  133.9039  155.8904 C.3     1  UNL1        0.0538
     17 C         142.8246  136.1685  157.3105 C.ar    1  UNL1        0.0963
     18 C         144.5581  140.5798  155.6368 C.3     1  UNL1        0.2525
     19 O         144.5719  139.6063  156.7779 O.3     1  UNL1       -0.4700
     20 C         142.4086  143.8631  164.3928 C.3     1  UNL1        0.2138
     21 C         142.0282  142.8305  165.4121 C.2     1  UNL1        0.2510
     22 O         143.0944  142.0993  166.1729 O.2     1  UNL1       -0.2727
     23 N         140.5818  142.5290  165.6706 N.am    1  UNL1       -0.2717
     24 C         139.5157  143.2602  164.9097 C.3     1  UNL1        0.0983
     25 C         138.9658  144.5504  165.4417 C.3     1  UNL1        0.0264
     26 C         138.9996  142.7013  163.6170 C.ar    1  UNL1       -0.0043
     27 C         139.3041  143.3980  162.3240 C.ar    1  UNL1       -0.0027
     28 C         138.7879  142.8390  161.0313 C.ar    1  UNL1       -0.0003
     29 C         137.9673  141.5834  161.0316 C.ar    1  UNL1       -0.0000
     30 C         137.6628  140.8867  162.3246 C.ar    1  UNL1       -0.0003
     31 C         138.1790  141.4457  163.6173 C.ar    1  UNL1       -0.0027
     32 C         140.2014  141.4964  166.6899 C.3     1  UNL1        0.1204
     33 C         139.7494  140.1363  166.2471 C.ar    1  UNL1       -0.0023
     34 C         138.4900  139.5451  166.8078 C.ar    1  UNL1       -0.0026
     35 C         138.0380  138.1851  166.3650 C.ar    1  UNL1       -0.0003
     36 C         138.8454  137.4163  165.3616 C.ar    1  UNL1       -0.0000
     37 C         140.1049  138.0075  164.8009 C.ar    1  UNL1       -0.0003
     38 C         140.5568  139.3675  165.2437 C.ar    1  UNL1       -0.0026
@<TRIPOS>BOND
     1    18    19    1
     2    19     6    1
     3     6     7   ar
     4     7     8   ar
     5     8     1    1
     6     1     2   ar
     7     2     3   ar
     8     3    20    1
     9    20    21    1
    10    21    22    2
    11    21    23   am
    12    23    32    1
    13    32    33    1
    14    33    34   ar
    15    34    35   ar
    16    35    36   ar
    17    36    37   ar
    18    37    38   ar
    19    23    24    1
    20    24    25    1
    21    24    26    1
    22    26    27   ar
    23    27    28   ar
    24    28    29   ar
    25    29    30   ar
    26    30    31   ar
    27     3     4   ar
    28     4     5   ar
    29     8     9   ar
    30     9    10   ar
    31    10    11   ar
    32    11    12    1
    33    12    13   ar
    34    13    14   ar
    35    14    15   ar
    36    15    16    1
    37    15    17   ar
    38    11     6   ar
    39    17    12   ar
    40     5     1   ar
    41    38    33   ar
    42    31    26   ar
@<TRIPOS>MOLECULE
*****
 38 42 0 0 0
SMALL
GASTEIGER

@<TRIPOS>ATOM
      1 C         139.7934  140.4259  159.6673 C.ar    1  UNL1        0.1233
      2 C         140.6267  141.4826  160.3298 C.ar    1  UNL1        0.1181
      3 N         139.7216  142.3171  161.1868 N.ar    1  UNL1       -0.2208
      4 N         138.3288  141.7762  161.0539 N.ar    1  UNL1       -0.0633
      5 N         138.3732  140.6074  160.1148 N.ar    1  UNL1       -0.1287
      6 C         139.8285  137.5976  156.8836 C.ar    1  UNL1        0.1547
      7 C         139.3295  138.6508  157.8278 C.ar    1  UNL1        0.0400
      8 C         140.2925  139.3726  158.7230 C.ar    1  UNL1        0.0241
      9 C         141.7546  139.0413  158.6741 C.ar    1  UNL1        0.0033
     10 C         142.2537  137.9881  157.7299 C.ar    1  UNL1        0.0207
     11 C         141.2906  137.2662  156.8346 C.ar    1  UNL1        0.0994
     12 N         141.7898  136.2129  155.8903 N.ar    1  UNL1       -0.2839
     13 C         141.9033  136.3466  154.4006 C.ar    1  UNL1        0.1826
     14 N         142.4467  135.0574  153.8597 N.ar    1  UNL1       -0.2280
     15 C         142.6690  134.1269  155.0151 C.ar    1  UNL1        0.0786
     16 C         143.2034  132.7279  154.9303 C.3     1  UNL1        0.0538
     17 C         142.2630  134.8411  156.2701 C.ar    1  UNL1        0.0963
     18 C         138.3508  137.5429  154.7474 C.3     1  UNL1        0.2525
     19 O         138.8655  136.8757  155.9883 O.3     1  UNL1       -0.4700
     20 C         140.1364  143.4871  162.0288 C.3     1  UNL1        0.2138
     21 C         141.2149  143.3252  163.0587 C.2     1  UNL1        0.2510
     22 O         142.5901  143.8637  162.7957 O.2     1  UNL1       -0.2727
     23 N         140.9184  142.6247  164.3514 N.am    1  UNL1       -0.2717
     24 C         139.5432  142.0862  164.6143 C.3     1  UNL1        0.0983
     25 C         138.3793  143.0254  164.7297 C.3     1  UNL1        0.0264
     26 C         139.3319  140.6085  164.7618 C.ar    1  UNL1       -0.0043
     27 C         139.7531  139.6774  163.6639 C.ar    1  UNL1       -0.0027
     28 C         139.5418  138.1997  163.8114 C.ar    1  UNL1       -0.0003
     29 C         138.9092  137.6532  165.0569 C.ar    1  UNL1       -0.0000
     30 C         138.4879  138.5843  166.1548 C.ar    1  UNL1       -0.0003
     31 C         138.6992  140.0620  166.0072 C.ar    1  UNL1       -0.0027
     32 C         141.9968  142.4627  165.3813 C.3     1  UNL1        0.1204
     33 C         142.5089  141.0947  165.7223 C.ar    1  UNL1       -0.0023
     34 C         142.2697  140.5232  167.0884 C.ar    1  UNL1       -0.0026
     35 C         142.7819  139.1552  167.4293 C.ar    1  UNL1       -0.0003
     36 C         143.5332  138.3586  166.4041 C.ar    1  UNL1       -0.0000
     37 C         143.7724  138.9301  165.0380 C.ar    1  UNL1       -0.0003
     38 C         143.2603  140.2981  164.6971 C.ar    1  UNL1       -0.0026
@<TRIPOS>BOND
     1    18    19    1
     2    19     6    1
     3     6     7   ar
     4     7     8   ar
     5     8     1    1
     6     1     2   ar
     7     2     3   ar
     8     3    20    1
     9    20    21    1
    10    21    22    2
    11    21    23   am
    12    23    32    1
    13    32    33    1
    14    33    34   ar
    15    34    35   ar
    16    35    36   ar
    17    36    37   ar
    18    37    38   ar
    19    23    24    1
    20    24    25    1
    21    24    26    1
    22    26    27   ar
    23    27    28   ar
    24    28    29   ar
    25    29    30   ar
    26    30    31   ar
    27     3     4   ar
    28     4     5   ar
    29     8     9   ar
    30     9    10   ar
    31    10    11   ar
    32    11    12    1
    33    12    13   ar
    34    13    14   ar
    35    14    15   ar
    36    15    16    1
    37    15    17   ar
    38    11     6   ar
    39    17    12   ar
    40     5     1   ar
    41    38    33   ar
    42    31    26   ar
@<TRIPOS>MOLECULE
*****
 38 42 0 0 0
SMALL
GASTEIGER

@<TRIPOS>ATOM
      1 C         138.8374  140.2002  160.7089 C.ar    1  UNL1        0.1233
      2 C         139.5772  139.8516  161.9663 C.ar    1  UNL1        0.1181
      3 N         138.8231  138.7556  162.6592 N.ar    1  UNL1       -0.2208
      4 N         137.6172  138.4267  161.8299 N.ar    1  UNL1       -0.0633
      5 N         137.6260  139.3195  160.6246 N.ar    1  UNL1       -0.1287
      6 C         140.3190  143.5467  159.1741 C.ar    1  UNL1        0.1547
      7 C         139.9179  142.5011  160.1720 C.ar    1  UNL1        0.0400
      8 C         139.2384  141.2458  159.7109 C.ar    1  UNL1        0.0241
      9 C         138.9600  141.0361  158.2520 C.ar    1  UNL1        0.0033
     10 C         139.3611  142.0817  157.2542 C.ar    1  UNL1        0.0207
     11 C         140.0405  143.3370  157.7152 C.ar    1  UNL1        0.0994
     12 N         140.4416  144.3827  156.7172 N.ar    1  UNL1       -0.2839
     13 C         141.7069  144.3934  155.9117 C.ar    1  UNL1        0.1826
     14 N         141.6950  145.6185  155.0462 N.ar    1  UNL1       -0.2280
     15 C         140.4224  146.3650  155.3170 C.ar    1  UNL1        0.0786
     16 C         139.9988  147.6496  154.6688 C.3     1  UNL1        0.0538
     17 C         139.6478  145.6012  156.3497 C.ar    1  UNL1        0.0963
     18 C         140.2936  145.7345  160.5752 C.3     1  UNL1        0.2525
     19 O         140.9984  144.8020  159.6352 O.3     1  UNL1       -0.4700
     20 C         139.2075  138.1030  163.9539 C.3     1  UNL1        0.2138
     21 C         140.5930  138.2800  164.5008 C.2     1  UNL1        0.2510
     22 O         141.7386  137.5191  163.9018 O.2     1  UNL1       -0.2727
     23 N         140.8329  139.2177  165.6466 N.am    1  UNL1       -0.2717
     24 C         139.6873  139.9786  166.2455 C.3     1  UNL1        0.0983
     25 C         138.9242  139.3995  167.3999 C.3     1  UNL1        0.0264
     26 C         139.3047  141.3184  165.6903 C.ar    1  UNL1       -0.0043
     27 C         138.1800  141.4281  164.7039 C.ar    1  UNL1       -0.0027
     28 C         137.7974  142.7680  164.1486 C.ar    1  UNL1       -0.0003
     29 C         138.5396  143.9982  164.5797 C.ar    1  UNL1       -0.0000
     30 C         139.6643  143.8885  165.5661 C.ar    1  UNL1       -0.0003
     31 C         140.0468  142.5486  166.1214 C.ar    1  UNL1       -0.0027
     32 C         142.2184  139.3948  166.1934 C.3     1  UNL1        0.1204
     33 C         143.1927  140.2937  165.4914 C.ar    1  UNL1       -0.0023
     34 C         143.1145  141.7794  165.6828 C.ar    1  UNL1       -0.0026
     35 C         144.0888  142.6783  164.9807 C.ar    1  UNL1       -0.0003
     36 C         145.1412  142.0915  164.0874 C.ar    1  UNL1       -0.0000
     37 C         145.2194  140.6058  163.8961 C.ar    1  UNL1       -0.0003
     38 C         144.2451  139.7069  164.5981 C.ar    1  UNL1       -0.0026
@<TRIPOS>BOND
     1    18    19    1
     2    19     6    1
     3     6     7   ar
     4     7     8   ar
     5     8     1    1
     6     1     2   ar
     7     2     3   ar
     8     3    20    1
     9    20    21    1
    10    21    22    2
    11    21    23   am
    12    23    32    1
    13    32    33    1
    14    33    34   ar
    15    34    35   ar
    16    35    36   ar
    17    36    37   ar
    18    37    38   ar
    19    23    24    1
    20    24    25    1
    21    24    26    1
    22    26    27   ar
    23    27    28   ar
    24    28    29   ar
    25    29    30   ar
    26    30    31   ar
    27     3     4   ar
    28     4     5   ar
    29     8     9   ar
    30     9    10   ar
    31    10    11   ar
    32    11    12    1
    33    12    13   ar
    34    13    14   ar
    35    14    15   ar
    36    15    16    1
    37    15    17   ar
    38    11     6   ar
    39    17    12   ar
    40     5     1   ar
    41    38    33   ar
    42    31    26   ar
@<TRIPOS>MOLECULE
*****
 38 42 0 0 0
SMALL
GASTEIGER

@<TRIPOS>ATOM
      1 C         139.9601  143.3688  160.2079 C.ar    1  UNL1        0.1233
      2 C         141.0662  142.7703  161.0254 C.ar    1  UNL1        0.1181
      3 N         140.4519  142.1116  162.2248 N.ar    1  UNL1       -0.2208
      4 N         138.9660  142.3029  162.1486 N.ar    1  UNL1       -0.0633
      5 N         138.6621  143.0799  160.9020 N.ar    1  UNL1       -0.1287
      6 C         139.3905  144.5777  156.4710 C.ar    1  UNL1        0.1547
      7 C         139.2274  143.8230  157.7569 C.ar    1  UNL1        0.0400
      8 C         140.1232  144.1236  158.9219 C.ar    1  UNL1        0.0241
      9 C         141.1821  145.1791  158.8009 C.ar    1  UNL1        0.0033
     10 C         141.3452  145.9338  157.5150 C.ar    1  UNL1        0.0207
     11 C         140.4494  145.6332  156.3500 C.ar    1  UNL1        0.0994
     12 N         140.6126  146.3880  155.0640 N.ar    1  UNL1       -0.2839
     13 C         141.4079  145.9403  153.8737 C.ar    1  UNL1        0.1826
     14 N         141.2959  146.9987  152.8167 N.ar    1  UNL1       -0.2280
     15 C         140.4312  148.1006  153.3538 C.ar    1  UNL1        0.0786
     16 C         140.0550  149.3588  152.6291 C.3     1  UNL1        0.0538
     17 C         140.0089  147.7231  154.7427 C.ar    1  UNL1        0.0963
     18 C         137.1502  143.6528  155.5353 C.3     1  UNL1        0.2525
     19 O         138.4947  144.2771  155.3061 O.3     1  UNL1       -0.4700
     20 C         141.1932  141.3885  163.3100 C.3     1  UNL1        0.2138
     21 C         141.7774  142.1557  164.4589 C.2     1  UNL1        0.2510
     22 O         141.9501  143.6424  164.3574 O.2     1  UNL1       -0.2727
     23 N         142.1889  141.4366  165.7092 N.am    1  UNL1       -0.2717
     24 C         142.0162  139.9499  165.8106 C.3     1  UNL1        0.0983
     25 C         143.2088  139.0470  165.6992 C.3     1  UNL1        0.0264
     26 C         140.6510  139.3662  166.0233 C.ar    1  UNL1       -0.0043
     27 C         139.7952  139.8530  167.1549 C.ar    1  UNL1       -0.0027
     28 C         138.4299  139.2693  167.3676 C.ar    1  UNL1       -0.0003
     29 C         137.9204  138.1987  166.4487 C.ar    1  UNL1       -0.0000
     30 C         138.7762  137.7119  165.3171 C.ar    1  UNL1       -0.0003
     31 C         140.1415  138.2957  165.1044 C.ar    1  UNL1       -0.0027
     32 C         142.7731  142.2038  166.8581 C.3     1  UNL1        0.1204
     33 C         142.1551  142.1000  168.2209 C.ar    1  UNL1       -0.0023
     34 C         140.9292  142.8987  168.5514 C.ar    1  UNL1       -0.0026
     35 C         140.3112  142.7948  169.9142 C.ar    1  UNL1       -0.0003
     36 C         140.9191  141.8922  170.9466 C.ar    1  UNL1       -0.0000
     37 C         142.1450  141.0935  170.6161 C.ar    1  UNL1       -0.0003
     38 C         142.7630  141.1974  169.2533 C.ar    1  UNL1       -0.0026
@<TRIPOS>BOND
     1    18    19    1
     2    19     6    1
     3     6     7   ar
     4     7     8   ar
     5     8     1    1
     6     1     2   ar
     7     2     3   ar
     8     3    20    1
     9    20    21    1
    10    21    22    2
    11    21    23   am
    12    23    32    1
    13    32    33    1
    14    33    34   ar
    15    34    35   ar
    16    35    36   ar
    17    36    37   ar
    18    37    38   ar
    19    23    24    1
    20    24    25    1
    21    24    26    1
    22    26    27   ar
    23    27    28   ar
    24    28    29   ar
    25    29    30   ar
    26    30    31   ar
    27     3     4   ar
    28     4     5   ar
    29     8     9   ar
    30     9    10   ar
    31    10    11   ar
    32    11    12    1
    33    12    13   ar
    34    13    14   ar
    35    14    15   ar
    36    15    16    1
    37    15    17   ar
    38    11     6   ar
    39    17    12   ar
    40     5     1   ar
    41    38    33   ar
    42    31    26   ar
