@<TRIPOS>MOLECULE
*****
 29 32 0 0 0
SMALL
GASTEIGER

@<TRIPOS>ATOM
      1 C         141.4969  140.1898  167.7480 C.3     1  UNL1        0.2959
      2 N         140.3755  140.1429  168.7431 N.2     1  UNL1       -0.2191
      3 C         140.9701  139.9145  170.1012 C.2     1  UNL1        0.1399
      4 C         140.2094  139.8004  171.3889 C.3     1  UNL1        0.0598
      5 C         142.4590  139.8204  169.9454 C.2     1  UNL1        0.3289
      6 N         143.4486  139.5955  171.0500 N.pl3   1  UNL1       -0.2454
      7 N         142.7846  139.9905  168.4911 N.2     1  UNL1       -0.0404
      8 H         143.1359  139.4951  171.9781 H       1  UNL1        0.2885
      9 H         144.4108  139.5484  170.8469 H       1  UNL1        0.2885
     10 C         144.1703  140.4678  164.1390 C.ar    1  UNL1        0.1387
     11 C         143.9714  141.6661  165.0190 C.ar    1  UNL1        0.0368
     12 C         143.0802  141.5734  166.2221 C.ar    1  UNL1        0.0052
     13 C         142.3880  140.2825  166.5450 C.ar    1  UNL1        0.0481
     14 C         142.5870  139.0842  165.6650 C.ar    1  UNL1        0.0052
     15 C         143.4782  139.1769  164.4619 C.ar    1  UNL1        0.0368
     16 C         145.1955  141.8607  162.2002 C.3     1  UNL1        0.2525
     17 O         145.0615  140.5605  162.9360 O.3     1  UNL1       -0.4714
     18 C         140.3955  140.4085  166.7535 C.ar    1  UNL1        0.0479
     19 C         139.3055  139.3888  166.6052 C.ar    1  UNL1        0.0021
     20 C         138.2041  139.6075  165.6107 C.ar    1  UNL1       -0.0001
     21 C         138.1927  140.8459  164.7645 C.ar    1  UNL1        0.0001
     22 C         139.2827  141.8656  164.9127 C.ar    1  UNL1        0.0029
     23 C         140.3841  141.6469  165.9073 C.ar    1  UNL1        0.0022
     24 C         139.2713  143.1041  164.0665 C.ar    1  UNL1        0.0384
     25 C         140.5203  143.9209  163.9157 C.ar    1  UNL1        0.1022
     26 N         140.5089  145.1593  163.0694 N.ar    1  UNL1       -0.2224
     27 C         139.2484  145.5810  162.3739 C.ar    1  UNL1        0.1989
     28 N         137.9994  144.7641  162.5247 N.ar    1  UNL1       -0.2224
     29 C         138.0108  143.5256  163.3710 C.ar    1  UNL1        0.1022
@<TRIPOS>BOND
     1    16    17    1
     2    17    10    1
     3    10    11   ar
     4    11    12   ar
     5    12    13   ar
     6    13     1    1
     7     1    18    1
     8    18    19   ar
     9    19    20   ar
    10    20    21   ar
    11    21    22   ar
    12    22    24    1
    13    24    25   ar
    14    25    26   ar
    15    26    27   ar
    16    27    28   ar
    17    28    29   ar
    18    22    23   ar
    19     1     2    1
    20     2     3    2
    21     3     4    1
    22     3     5    1
    23     5     6    1
    24     5     7    2
    25    13    14   ar
    26    14    15   ar
    27    15    10   ar
    28     7     1    1
    29    23    18   ar
    30    29    24   ar
    31     6     8    1
    32     6     9    1
@<TRIPOS>MOLECULE
*****
 29 32 0 0 0
SMALL
GASTEIGER

@<TRIPOS>ATOM
      1 C         140.4308  141.0999  167.3623 C.3     1  UNL1        0.2959
      2 N         140.7268  142.1745  168.3660 N.2     1  UNL1       -0.2191
      3 C         139.9816  141.8493  169.6267 C.2     1  UNL1        0.1399
      4 C         139.9913  142.6578  170.8901 C.3     1  UNL1        0.0598
      5 C         139.2251  140.5737  169.4019 C.2     1  UNL1        0.3289
      6 N         138.3455  139.8826  170.4013 N.pl3   1  UNL1       -0.2454
      7 N         139.5027  140.1105  168.0025 N.2     1  UNL1       -0.0404
      8 H         138.2251  140.2667  171.2997 H       1  UNL1        0.2885
      9 H         137.8886  139.0450  170.1587 H       1  UNL1        0.2885
     10 C         140.1108  138.3775  163.7935 C.ar    1  UNL1        0.1387
     11 C         141.3798  138.4213  164.5920 C.ar    1  UNL1        0.0368
     12 C         141.4865  139.3288  165.7816 C.ar    1  UNL1        0.0052
     13 C         140.3241  140.1924  166.1727 C.ar    1  UNL1        0.0481
     14 C         139.0551  140.1486  165.3742 C.ar    1  UNL1        0.0052
     15 C         138.9485  139.2412  164.1846 C.ar    1  UNL1        0.0368
     16 C         139.5127  138.0073  161.2925 C.3     1  UNL1        0.2525
     17 O         140.0041  137.4701  162.6039 O.3     1  UNL1       -0.4714
     18 C         141.3366  141.8996  166.4734 C.ar    1  UNL1        0.0479
     19 C         142.8091  141.9506  166.7542 C.ar    1  UNL1        0.0021
     20 C         143.7149  142.7502  165.8653 C.ar    1  UNL1       -0.0001
     21 C         143.1480  143.4988  164.6956 C.ar    1  UNL1        0.0001
     22 C         141.6755  143.4478  164.4148 C.ar    1  UNL1        0.0029
     23 C         140.7697  142.6482  165.3037 C.ar    1  UNL1        0.0022
     24 C         141.1087  144.1965  163.2451 C.ar    1  UNL1        0.0384
     25 C         141.9311  144.3838  162.0046 C.ar    1  UNL1        0.1022
     26 N         141.3643  145.1324  160.8349 N.ar    1  UNL1       -0.2224
     27 C         139.9750  145.6938  160.9056 C.ar    1  UNL1        0.1989
     28 N         139.1526  145.5065  162.1461 N.ar    1  UNL1       -0.2224
     29 C         139.7195  144.7579  163.3158 C.ar    1  UNL1        0.1022
@<TRIPOS>BOND
     1    16    17    1
     2    17    10    1
     3    10    11   ar
     4    11    12   ar
     5    12    13   ar
     6    13     1    1
     7     1    18    1
     8    18    19   ar
     9    19    20   ar
    10    20    21   ar
    11    21    22   ar
    12    22    24    1
    13    24    25   ar
    14    25    26   ar
    15    26    27   ar
    16    27    28   ar
    17    28    29   ar
    18    22    23   ar
    19     1     2    1
    20     2     3    2
    21     3     4    1
    22     3     5    1
    23     5     6    1
    24     5     7    2
    25    13    14   ar
    26    14    15   ar
    27    15    10   ar
    28     7     1    1
    29    23    18   ar
    30    29    24   ar
    31     6     8    1
    32     6     9    1
@<TRIPOS>MOLECULE
*****
 29 32 0 0 0
SMALL
GASTEIGER

@<TRIPOS>ATOM
      1 C         141.5358  141.3353  167.7695 C.3     1  UNL1        0.2959
      2 N         141.6545  140.2279  168.7742 N.2     1  UNL1       -0.2191
      3 C         142.7561  140.5837  169.7282 C.2     1  UNL1        0.1399
      4 C         143.2149  139.7572  170.8929 C.3     1  UNL1        0.0598
      5 C         143.3182  141.9110  169.3130 C.2     1  UNL1        0.3289
      6 N         144.4378  142.6448  169.9896 N.pl3   1  UNL1       -0.2454
      7 N         142.5640  142.3755  168.1025 N.2     1  UNL1       -0.0404
      8 H         144.8727  142.2561  170.7828 H       1  UNL1        0.2885
      9 H         144.7378  143.5151  169.6406 H       1  UNL1        0.2885
     10 C         140.4891  144.1272  164.3991 C.ar    1  UNL1        0.1387
     11 C         139.5309  143.9322  165.5365 C.ar    1  UNL1        0.0368
     12 C         139.8798  143.0016  166.6599 C.ar    1  UNL1        0.0052
     13 C         141.1869  142.2660  166.6460 C.ar    1  UNL1        0.0481
     14 C         142.1451  142.4610  165.5086 C.ar    1  UNL1        0.0052
     15 C         141.7963  143.3916  164.3852 C.ar    1  UNL1        0.0368
     16 C         140.9907  145.0946  162.0406 C.3     1  UNL1        0.2525
     17 O         140.1402  145.0579  163.2756 O.3     1  UNL1       -0.4714
     18 C         140.4347  140.4897  167.2016 C.ar    1  UNL1        0.0479
     19 C         139.3180  140.0195  168.0859 C.ar    1  UNL1        0.0021
     20 C         138.2169  139.1740  167.5181 C.ar    1  UNL1       -0.0001
     21 C         138.2324  138.7986  166.0660 C.ar    1  UNL1        0.0001
     22 C         139.3490  139.2687  165.1816 C.ar    1  UNL1        0.0029
     23 C         140.4501  140.1143  165.7495 C.ar    1  UNL1        0.0022
     24 C         139.3645  138.8933  163.7295 C.ar    1  UNL1        0.0384
     25 C         138.2613  139.3544  162.8238 C.ar    1  UNL1        0.1022
     26 N         138.2768  138.9790  161.3716 N.ar    1  UNL1       -0.2224
     27 C         139.3955  138.1424  160.8251 C.ar    1  UNL1        0.1989
     28 N         140.4988  137.6813  161.7308 N.ar    1  UNL1       -0.2224
     29 C         140.4832  138.0568  163.1830 C.ar    1  UNL1        0.1022
@<TRIPOS>BOND
     1    16    17    1
     2    17    10    1
     3    10    11   ar
     4    11    12   ar
     5    12    13   ar
     6    13     1    1
     7     1    18    1
     8    18    19   ar
     9    19    20   ar
    10    20    21   ar
    11    21    22   ar
    12    22    24    1
    13    24    25   ar
    14    25    26   ar
    15    26    27   ar
    16    27    28   ar
    17    28    29   ar
    18    22    23   ar
    19     1     2    1
    20     2     3    2
    21     3     4    1
    22     3     5    1
    23     5     6    1
    24     5     7    2
    25    13    14   ar
    26    14    15   ar
    27    15    10   ar
    28     7     1    1
    29    23    18   ar
    30    29    24   ar
    31     6     8    1
    32     6     9    1
@<TRIPOS>MOLECULE
*****
 29 32 0 0 0
SMALL
GASTEIGER

@<TRIPOS>ATOM
      1 C         141.1839  140.8417  167.3473 C.3     1  UNL1        0.2959
      2 N         142.3103  140.0972  168.0007 N.2     1  UNL1       -0.2191
      3 C         141.8276  139.6011  169.3315 C.2     1  UNL1        0.1399
      4 C         142.6289  138.8066  170.3198 C.3     1  UNL1        0.0598
      5 C         140.4029  140.0389  169.5005 C.2     1  UNL1        0.3289
      6 N         139.5294  139.7592  170.6874 N.pl3   1  UNL1       -0.2454
      7 N         140.0050  140.8057  168.2742 N.2     1  UNL1       -0.0404
      8 H         139.8830  139.2442  171.4483 H       1  UNL1        0.2885
      9 H         138.6025  140.0905  170.7055 H       1  UNL1        0.2885
     10 C         138.4233  143.2008  164.6894 C.ar    1  UNL1        0.1387
     11 C         139.4459  143.9101  165.5268 C.ar    1  UNL1        0.0368
     12 C         140.3661  143.1237  166.4127 C.ar    1  UNL1        0.0052
     13 C         140.2637  141.6281  166.4613 C.ar    1  UNL1        0.0481
     14 C         139.2411  140.9188  165.6240 C.ar    1  UNL1        0.0052
     15 C         138.3209  141.7051  164.7380 C.ar    1  UNL1        0.0368
     16 C         138.0436  144.6817  162.5888 C.3     1  UNL1        0.2525
     17 O         137.5032  143.9872  163.8035 O.3     1  UNL1       -0.4714
     18 C         142.1703  141.0421  166.2352 C.ar    1  UNL1        0.0479
     19 C         143.1861  142.1423  166.3228 C.ar    1  UNL1        0.0021
     20 C         144.1725  142.3427  165.2108 C.ar    1  UNL1       -0.0001
     21 C         144.1431  141.4430  164.0110 C.ar    1  UNL1        0.0001
     22 C         143.1274  140.3428  163.9233 C.ar    1  UNL1        0.0029
     23 C         142.1409  140.1423  165.0354 C.ar    1  UNL1        0.0022
     24 C         143.0980  139.4430  162.7235 C.ar    1  UNL1        0.0384
     25 C         142.0615  138.3636  162.6206 C.ar    1  UNL1        0.1022
     26 N         142.0321  137.4638  161.4208 N.ar    1  UNL1       -0.2224
     27 C         143.0394  137.6434  160.3238 C.ar    1  UNL1        0.1989
     28 N         144.0759  138.7228  160.4267 N.ar    1  UNL1       -0.2224
     29 C         144.1052  139.6226  161.6265 C.ar    1  UNL1        0.1022
@<TRIPOS>BOND
     1    16    17    1
     2    17    10    1
     3    10    11   ar
     4    11    12   ar
     5    12    13   ar
     6    13     1    1
     7     1    18    1
     8    18    19   ar
     9    19    20   ar
    10    20    21   ar
    11    21    22   ar
    12    22    24    1
    13    24    25   ar
    14    25    26   ar
    15    26    27   ar
    16    27    28   ar
    17    28    29   ar
    18    22    23   ar
    19     1     2    1
    20     2     3    2
    21     3     4    1
    22     3     5    1
    23     5     6    1
    24     5     7    2
    25    13    14   ar
    26    14    15   ar
    27    15    10   ar
    28     7     1    1
    29    23    18   ar
    30    29    24   ar
    31     6     8    1
    32     6     9    1
@<TRIPOS>MOLECULE
*****
 29 32 0 0 0
SMALL
GASTEIGER

@<TRIPOS>ATOM
      1 C         141.2729  141.8853  167.6465 C.3     1  UNL1        0.2959
      2 N         142.4537  141.8822  168.5715 N.2     1  UNL1       -0.2191
      3 C         142.1868  142.8715  169.6671 C.2     1  UNL1        0.1399
      4 C         143.1044  143.1903  170.8100 C.3     1  UNL1        0.0598
      5 C         140.8411  143.4860  169.4190 C.2     1  UNL1        0.3289
      6 N         140.1768  144.5271  170.2703 N.pl3   1  UNL1       -0.2454
      7 N         140.2763  142.8764  168.1702 N.2     1  UNL1       -0.0404
      8 H         140.6300  144.8671  171.0755 H       1  UNL1        0.2885
      9 H         139.2877  144.8706  170.0238 H       1  UNL1        0.2885
     10 C         138.2224  141.2448  164.4008 C.ar    1  UNL1        0.1387
     11 C         138.9443  142.5556  164.5035 C.ar    1  UNL1        0.0368
     12 C         139.9612  142.7691  165.5854 C.ar    1  UNL1        0.0052
     13 C         140.2561  141.6718  166.5646 C.ar    1  UNL1        0.0481
     14 C         139.5342  140.3610  166.4619 C.ar    1  UNL1        0.0052
     15 C         138.5173  140.1475  165.3800 C.ar    1  UNL1        0.0368
     16 C         137.6309  140.4905  161.9861 C.3     1  UNL1        0.2525
     17 O         137.2056  141.0314  163.3189 O.3     1  UNL1       -0.4714
     18 C         142.0570  140.8494  166.8965 C.ar    1  UNL1        0.0479
     19 C         142.5480  139.6219  167.6052 C.ar    1  UNL1        0.0021
     20 C         143.3320  138.5862  166.8553 C.ar    1  UNL1       -0.0001
     21 C         143.6250  138.7778  165.3967 C.ar    1  UNL1        0.0001
     22 C         143.1341  140.0053  164.6881 C.ar    1  UNL1        0.0029
     23 C         142.3500  141.0411  165.4380 C.ar    1  UNL1        0.0022
     24 C         143.4271  140.1970  163.2295 C.ar    1  UNL1        0.0384
     25 C         143.3188  141.5614  162.6158 C.ar    1  UNL1        0.1022
     26 N         143.6119  141.7530  161.1572 N.ar    1  UNL1       -0.2224
     27 C         144.0133  140.5803  160.3124 C.ar    1  UNL1        0.1989
     28 N         144.1216  139.2159  160.9262 N.ar    1  UNL1       -0.2224
     29 C         143.8285  139.0242  162.3848 C.ar    1  UNL1        0.1022
@<TRIPOS>BOND
     1    16    17    1
     2    17    10    1
     3    10    11   ar
     4    11    12   ar
     5    12    13   ar
     6    13     1    1
     7     1    18    1
     8    18    19   ar
     9    19    20   ar
    10    20    21   ar
    11    21    22   ar
    12    22    24    1
    13    24    25   ar
    14    25    26   ar
    15    26    27   ar
    16    27    28   ar
    17    28    29   ar
    18    22    23   ar
    19     1     2    1
    20     2     3    2
    21     3     4    1
    22     3     5    1
    23     5     6    1
    24     5     7    2
    25    13    14   ar
    26    14    15   ar
    27    15    10   ar
    28     7     1    1
    29    23    18   ar
    30    29    24   ar
    31     6     8    1
    32     6     9    1
@<TRIPOS>MOLECULE
*****
 29 32 0 0 0
SMALL
GASTEIGER

@<TRIPOS>ATOM
      1 C         141.1461  141.5911  167.9567 C.3     1  UNL1        0.2959
      2 N         139.9664  141.8020  168.8587 N.2     1  UNL1       -0.2191
      3 C         140.4464  142.5079  170.0922 C.2     1  UNL1        0.1399
      4 C         139.5988  142.9166  171.2603 C.3     1  UNL1        0.0598
      5 C         141.9228  142.7331  169.9525 C.2     1  UNL1        0.3289
      6 N         142.8107  143.4067  170.9563 N.pl3   1  UNL1       -0.2454
      7 N         142.3552  142.1666  168.6327 N.2     1  UNL1       -0.0404
      8 H         142.4315  143.7477  171.7985 H       1  UNL1        0.2885
      9 H         143.7727  143.5079  170.7731 H       1  UNL1        0.2885
     10 C         144.0541  140.5521  164.6835 C.ar    1  UNL1        0.1387
     11 C         143.6893  141.9850  164.9356 C.ar    1  UNL1        0.0368
     12 C         142.7200  142.3314  166.0266 C.ar    1  UNL1        0.0052
     13 C         142.1155  141.2448  166.8656 C.ar    1  UNL1        0.0481
     14 C         142.4803  139.8119  166.6135 C.ar    1  UNL1        0.0052
     15 C         143.4496  139.4655  165.5224 C.ar    1  UNL1        0.0368
     16 C         144.7926  140.7061  162.1973 C.3     1  UNL1        0.2525
     17 O         145.0235  140.2057  163.5924 O.3     1  UNL1       -0.4714
     18 C         140.1397  140.9433  167.0526 C.ar    1  UNL1        0.0479
     19 C         139.3314  139.7786  167.5426 C.ar    1  UNL1        0.0021
     20 C         138.3250  139.1308  166.6386 C.ar    1  UNL1       -0.0001
     21 C         138.1268  139.6476  165.2445 C.ar    1  UNL1        0.0001
     22 C         138.9350  140.8123  164.7544 C.ar    1  UNL1        0.0029
     23 C         139.9415  141.4601  165.6585 C.ar    1  UNL1        0.0022
     24 C         138.7369  141.3291  163.3603 C.ar    1  UNL1        0.0384
     25 C         139.3627  140.6144  162.1994 C.ar    1  UNL1        0.1022
     26 N         139.1645  141.1312  160.8053 N.ar    1  UNL1       -0.2224
     27 C         138.3405  142.3628  160.5720 C.ar    1  UNL1        0.1989
     28 N         137.7147  143.0775  161.7328 N.ar    1  UNL1       -0.2224
     29 C         137.9129  142.5606  163.1270 C.ar    1  UNL1        0.1022
@<TRIPOS>BOND
     1    16    17    1
     2    17    10    1
     3    10    11   ar
     4    11    12   ar
     5    12    13   ar
     6    13     1    1
     7     1    18    1
     8    18    19   ar
     9    19    20   ar
    10    20    21   ar
    11    21    22   ar
    12    22    24    1
    13    24    25   ar
    14    25    26   ar
    15    26    27   ar
    16    27    28   ar
    17    28    29   ar
    18    22    23   ar
    19     1     2    1
    20     2     3    2
    21     3     4    1
    22     3     5    1
    23     5     6    1
    24     5     7    2
    25    13    14   ar
    26    14    15   ar
    27    15    10   ar
    28     7     1    1
    29    23    18   ar
    30    29    24   ar
    31     6     8    1
    32     6     9    1
@<TRIPOS>MOLECULE
*****
 29 32 0 0 0
SMALL
GASTEIGER

@<TRIPOS>ATOM
      1 C         139.9666  141.5283  167.1279 C.3     1  UNL1        0.2959
      2 N         140.3690  142.6781  168.0031 N.2     1  UNL1       -0.2191
      3 C         140.3109  142.2172  169.4295 C.2     1  UNL1        0.1399
      4 C         140.6344  143.0455  170.6375 C.3     1  UNL1        0.0598
      5 C         139.8726  140.7827  169.4356 C.2     1  UNL1        0.3289
      6 N         139.6808  139.9247  170.6509 N.pl3   1  UNL1       -0.2454
      7 N         139.6598  140.3569  168.0132 N.2     1  UNL1       -0.0404
      8 H         139.8466  140.2966  171.5473 H       1  UNL1        0.2885
      9 H         139.3891  138.9896  170.5523 H       1  UNL1        0.2885
     10 C         138.9054  138.6897  163.8013 C.ar    1  UNL1        0.1387
     11 C         140.0817  138.4017  164.6864 C.ar    1  UNL1        0.0368
     12 C         140.4354  139.3479  165.7952 C.ar    1  UNL1        0.0052
     13 C         139.6129  140.5821  166.0190 C.ar    1  UNL1        0.0481
     14 C         138.4366  140.8701  165.1339 C.ar    1  UNL1        0.0052
     15 C         138.0829  139.9239  164.0251 C.ar    1  UNL1        0.0368
     16 C         137.7909  138.2384  161.4982 C.3     1  UNL1        0.2525
     17 O         138.5517  137.7435  162.6925 O.3     1  UNL1       -0.4714
     18 C         140.1995  142.5019  166.0107 C.ar    1  UNL1        0.0479
     19 C         139.3200  143.7090  165.8724 C.ar    1  UNL1        0.0021
     20 C         139.5528  144.6825  164.7553 C.ar    1  UNL1       -0.0001
     21 C         140.6651  144.4489  163.7765 C.ar    1  UNL1        0.0001
     22 C         141.5447  143.2418  163.9148 C.ar    1  UNL1        0.0029
     23 C         141.3118  142.2682  165.0319 C.ar    1  UNL1        0.0022
     24 C         142.6570  143.0081  162.9360 C.ar    1  UNL1        0.0384
     25 C         142.5531  143.5468  161.5399 C.ar    1  UNL1        0.1022
     26 N         143.6654  143.3132  160.5611 N.ar    1  UNL1       -0.2224
     27 C         144.8818  142.5408  160.9784 C.ar    1  UNL1        0.1989
     28 N         144.9857  142.0022  162.3745 N.ar    1  UNL1       -0.2224
     29 C         143.8733  142.2358  163.3533 C.ar    1  UNL1        0.1022
@<TRIPOS>BOND
     1    16    17    1
     2    17    10    1
     3    10    11   ar
     4    11    12   ar
     5    12    13   ar
     6    13     1    1
     7     1    18    1
     8    18    19   ar
     9    19    20   ar
    10    20    21   ar
    11    21    22   ar
    12    22    24    1
    13    24    25   ar
    14    25    26   ar
    15    26    27   ar
    16    27    28   ar
    17    28    29   ar
    18    22    23   ar
    19     1     2    1
    20     2     3    2
    21     3     4    1
    22     3     5    1
    23     5     6    1
    24     5     7    2
    25    13    14   ar
    26    14    15   ar
    27    15    10   ar
    28     7     1    1
    29    23    18   ar
    30    29    24   ar
    31     6     8    1
    32     6     9    1
@<TRIPOS>MOLECULE
*****
 29 32 0 0 0
SMALL
GASTEIGER

@<TRIPOS>ATOM
      1 C         140.1480  141.5937  167.1816 C.3     1  UNL1        0.2959
      2 N         140.2805  140.6210  168.3157 N.2     1  UNL1       -0.2191
      3 C         140.5340  141.4035  169.5702 C.2     1  UNL1        0.1399
      4 C         140.7291  140.8303  170.9426 C.3     1  UNL1        0.0598
      5 C         140.5581  142.8597  169.2113 C.2     1  UNL1        0.3289
      6 N         140.7816  143.9984  170.1618 N.pl3   1  UNL1       -0.2454
      7 N         140.3196  142.9773  167.7351 N.2     1  UNL1       -0.0404
      8 H         140.9303  143.8191  171.1184 H       1  UNL1        0.2885
      9 H         140.7796  144.9249  169.8291 H       1  UNL1        0.2885
     10 C         139.6197  143.7377  163.2606 C.ar    1  UNL1        0.1387
     11 C         138.5155  142.8776  163.7998 C.ar    1  UNL1        0.0368
     12 C         138.6916  142.1629  165.1068 C.ar    1  UNL1        0.0052
     13 C         139.9719  142.3084  165.8746 C.ar    1  UNL1        0.0481
     14 C         141.0761  143.1685  165.3354 C.ar    1  UNL1        0.0052
     15 C         140.9000  143.8832  164.0284 C.ar    1  UNL1        0.0368
     16 C         140.4419  144.2566  160.8513 C.3     1  UNL1        0.2525
     17 O         139.4436  144.4524  161.9537 O.3     1  UNL1       -0.4714
     18 C         139.9396  140.3596  166.3549 C.ar    1  UNL1        0.0479
     19 C         138.7750  139.4567  166.6353 C.ar    1  UNL1        0.0021
     20 C         138.5666  138.2227  165.8087 C.ar    1  UNL1       -0.0001
     21 C         139.5228  137.8913  164.7015 C.ar    1  UNL1        0.0001
     22 C         140.6874  138.7941  164.4210 C.ar    1  UNL1        0.0029
     23 C         140.8958  140.0282  165.2477 C.ar    1  UNL1        0.0022
     24 C         141.6436  138.4627  163.3138 C.ar    1  UNL1        0.0384
     25 C         141.1388  137.8291  162.0513 C.ar    1  UNL1        0.1022
     26 N         142.0950  137.4977  160.9442 N.ar    1  UNL1       -0.2224
     27 C         143.5561  137.8000  161.0994 C.ar    1  UNL1        0.1989
     28 N         144.0609  138.4336  162.3618 N.ar    1  UNL1       -0.2224
     29 C         143.1046  138.7650  163.4691 C.ar    1  UNL1        0.1022
@<TRIPOS>BOND
     1    16    17    1
     2    17    10    1
     3    10    11   ar
     4    11    12   ar
     5    12    13   ar
     6    13     1    1
     7     1    18    1
     8    18    19   ar
     9    19    20   ar
    10    20    21   ar
    11    21    22   ar
    12    22    24    1
    13    24    25   ar
    14    25    26   ar
    15    26    27   ar
    16    27    28   ar
    17    28    29   ar
    18    22    23   ar
    19     1     2    1
    20     2     3    2
    21     3     4    1
    22     3     5    1
    23     5     6    1
    24     5     7    2
    25    13    14   ar
    26    14    15   ar
    27    15    10   ar
    28     7     1    1
    29    23    18   ar
    30    29    24   ar
    31     6     8    1
    32     6     9    1
@<TRIPOS>MOLECULE
*****
 29 32 0 0 0
SMALL
GASTEIGER

@<TRIPOS>ATOM
      1 C         141.5438  141.4359  166.6440 C.3     1  UNL1        0.2959
      2 N         141.3540  142.5988  167.5722 N.2     1  UNL1       -0.2191
      3 C         140.5831  142.1181  168.7658 C.2     1  UNL1        0.1399
      4 C         140.1711  142.9512  169.9432 C.3     1  UNL1        0.0598
      5 C         140.2965  140.6581  168.5753 C.2     1  UNL1        0.3289
      6 N         139.5477  139.7749  169.5287 N.pl3   1  UNL1       -0.2454
      7 N         140.8902  140.2365  167.2639 N.2     1  UNL1       -0.0404
      8 H         139.1940  140.1460  170.3692 H       1  UNL1        0.2885
      9 H         139.4098  138.8240  169.3140 H       1  UNL1        0.2885
     10 C         142.5679  138.5743  163.3254 C.ar    1  UNL1        0.1387
     11 C         141.2004  139.1869  163.3922 C.ar    1  UNL1        0.0368
     12 C         140.8590  140.1408  164.4983 C.ar    1  UNL1        0.0052
     13 C         141.8852  140.4821  165.5378 C.ar    1  UNL1        0.0481
     14 C         143.2527  139.8695  165.4711 C.ar    1  UNL1        0.0052
     15 C         143.5941  138.9156  164.3649 C.ar    1  UNL1        0.0368
     16 C         143.4763  138.1383  160.9307 C.3     1  UNL1        0.2525
     17 O         142.9093  137.6205  162.2193 O.3     1  UNL1       -0.4714
     18 C         142.2687  142.4359  165.7927 C.ar    1  UNL1        0.0479
     19 C         143.6628  142.8567  166.1526 C.ar    1  UNL1        0.0021
     20 C         144.3876  143.8566  165.3014 C.ar    1  UNL1       -0.0001
     21 C         143.7184  144.4359  164.0904 C.ar    1  UNL1        0.0001
     22 C         142.3244  144.0152  163.7305 C.ar    1  UNL1        0.0029
     23 C         141.5995  143.0151  164.5817 C.ar    1  UNL1        0.0022
     24 C         141.6552  144.5944  162.5194 C.ar    1  UNL1        0.0384
     25 C         140.3911  145.3880  162.6686 C.ar    1  UNL1        0.1022
     26 N         139.7220  145.9673  161.4575 N.ar    1  UNL1       -0.2224
     27 C         140.3169  145.7529  160.0972 C.ar    1  UNL1        0.1989
     28 N         141.5810  144.9592  159.9481 N.ar    1  UNL1       -0.2224
     29 C         142.2502  144.3800  161.1593 C.ar    1  UNL1        0.1022
@<TRIPOS>BOND
     1    16    17    1
     2    17    10    1
     3    10    11   ar
     4    11    12   ar
     5    12    13   ar
     6    13     1    1
     7     1    18    1
     8    18    19   ar
     9    19    20   ar
    10    20    21   ar
    11    21    22   ar
    12    22    24    1
    13    24    25   ar
    14    25    26   ar
    15    26    27   ar
    16    27    28   ar
    17    28    29   ar
    18    22    23   ar
    19     1     2    1
    20     2     3    2
    21     3     4    1
    22     3     5    1
    23     5     6    1
    24     5     7    2
    25    13    14   ar
    26    14    15   ar
    27    15    10   ar
    28     7     1    1
    29    23    18   ar
    30    29    24   ar
    31     6     8    1
    32     6     9    1
