@<TRIPOS>MOLECULE
*****
 31 34 0 0 0
SMALL
GASTEIGER

@<TRIPOS>ATOM
      1 O         139.0786  143.4036  164.8156 O.3     1  UNL1       -0.3470
      2 C         139.9396  143.1886  166.0249 C.3     1  UNL1        0.1467
      3 C         144.8145  143.0927  163.0136 C.3     1  UNL1        0.0896
      4 N         143.6608  142.9662  163.9638 N.3     1  UNL1       -0.2715
      5 C         143.7976  142.1322  165.2029 C.3     1  UNL1        0.0725
      6 C         142.6439  142.0057  166.1531 C.3     1  UNL1        0.0238
      7 C         141.3532  142.7133  165.8641 C.3     1  UNL1        0.0489
      8 C         141.2164  143.5473  164.6249 C.3     1  UNL1        0.0238
      9 C         142.3701  143.6738  163.6748 C.3     1  UNL1        0.0725
     10 C         140.9992  142.0443  167.1592 C.ar    1  UNL1       -0.0202
     11 C         141.1228  140.5554  167.2925 C.ar    1  UNL1       -0.0019
     12 C         140.7688  139.8864  168.5875 C.ar    1  UNL1        0.0293
     13 C         140.2910  140.7063  169.7492 C.ar    1  UNL1        0.1401
     14 F         139.9370  140.0373  171.0442 F       1  UNL1       -0.2042
     15 C         140.1674  142.1953  169.6159 C.ar    1  UNL1        0.0293
     16 C         140.5214  142.8643  168.3208 C.ar    1  UNL1       -0.0019
     17 C         138.2916  142.2623  164.2427 C.3     1  UNL1        0.1874
     18 C         138.7285  140.8494  164.4936 C.ar    1  UNL1        0.0884
     19 C         138.0111  140.0120  165.5106 C.ar    1  UNL1        0.0211
     20 C         138.4481  138.5992  165.7615 C.ar    1  UNL1        0.0739
     21 C         139.6022  138.0237  164.9955 C.ar    1  UNL1        0.0212
     22 C         140.3195  138.8611  163.9785 C.ar    1  UNL1        0.0880
     23 N         139.8827  140.2740  163.7275 N.ar    1  UNL1       -0.2489
     24 C         137.7308  137.7616  166.7785 C.3     1  UNL1        0.4187
     25 F         137.0135  136.9242  167.7954 F       1  UNL1       -0.1659
     26 F         137.5584  138.9693  167.6513 F       1  UNL1       -0.1659
     27 F         137.9032  136.5541  165.9055 F       1  UNL1       -0.1659
     28 C         141.4736  138.2857  163.2125 C.3     1  UNL1        0.1686
     29 F         140.9541  136.9014  162.9598 F       1  UNL1       -0.2340
     30 C         142.8082  138.1909  162.5343 C.3     1  UNL1        0.0415
     31 C         142.3939  139.4701  163.1992 C.3     1  UNL1        0.0415
@<TRIPOS>BOND
     1     3     4    1
     2     4     5    1
     3     5     6    1
     4     6     7    1
     5     7     2    1
     6     2     1    1
     7     1    17    1
     8    17    18    1
     9    18    19   ar
    10    19    20   ar
    11    20    24    1
    12    24    25    1
    13    24    26    1
    14    24    27    1
    15    20    21   ar
    16    21    22   ar
    17    22    28    1
    18    28    29    1
    19    28    30    1
    20    30    31    1
    21    22    23   ar
    22     7    10    1
    23    10    11   ar
    24    11    12   ar
    25    12    13   ar
    26    13    14    1
    27    13    15   ar
    28    15    16   ar
    29     7     8    1
    30     8     9    1
    31     9     4    1
    32    23    18   ar
    33    16    10   ar
    34    31    28    1
@<TRIPOS>MOLECULE
*****
 31 34 0 0 0
SMALL
GASTEIGER

@<TRIPOS>ATOM
      1 O         143.2655  138.7885  164.0618 O.3     1  UNL1       -0.3470
      2 C         143.3139  139.6081  165.3171 C.3     1  UNL1        0.1467
      3 C         144.2305  144.6376  162.7274 C.3     1  UNL1        0.0896
      4 N         143.8521  143.4553  163.5694 N.3     1  UNL1       -0.2715
      5 C         142.9778  143.6415  164.7739 C.3     1  UNL1        0.0725
      6 C         142.5994  142.4592  165.6160 C.3     1  UNL1        0.0238
      7 C         143.0953  141.0908  165.2535 C.3     1  UNL1        0.0489
      8 C         143.9696  140.9046  164.0490 C.3     1  UNL1        0.0238
      9 C         144.3480  142.0869  163.2070 C.3     1  UNL1        0.0725
     10 C         142.2969  140.7621  166.4802 C.ar    1  UNL1       -0.0202
     11 C         142.8300  139.7806  167.4813 C.ar    1  UNL1       -0.0019
     12 C         142.0317  139.4518  168.7079 C.ar    1  UNL1        0.0293
     13 C         140.7001  140.1047  168.9333 C.ar    1  UNL1        0.1401
     14 F         139.9017  139.7760  170.1599 F       1  UNL1       -0.2042
     15 C         140.1670  141.0862  167.9322 C.ar    1  UNL1        0.0293
     16 C         140.9654  141.4150  166.7056 C.ar    1  UNL1       -0.0019
     17 C         141.9855  138.1246  163.6484 C.3     1  UNL1        0.1874
     18 C         140.6691  138.6977  164.0828 C.ar    1  UNL1        0.0884
     19 C         139.8710  138.0155  165.1541 C.ar    1  UNL1        0.0211
     20 C         138.5547  138.5887  165.5884 C.ar    1  UNL1        0.0739
     21 C         138.0364  139.8440  164.9515 C.ar    1  UNL1        0.0212
     22 C         138.8345  140.5262  163.8802 C.ar    1  UNL1        0.0880
     23 N         140.1509  139.9531  163.4458 N.ar    1  UNL1       -0.2489
     24 C         137.7564  137.9066  166.6597 C.3     1  UNL1        0.4187
     25 F         136.9583  137.2245  167.7310 F       1  UNL1       -0.1659
     26 F         137.5003  139.2324  167.3130 F       1  UNL1       -0.1659
     27 F         138.0126  136.5808  166.0064 F       1  UNL1       -0.1659
     28 C         138.3163  141.7815  163.2433 C.3     1  UNL1        0.1686
     29 F         138.4856  141.4280  161.7954 F       1  UNL1       -0.2340
     30 C         137.7392  143.1595  163.1092 C.3     1  UNL1        0.0415
     31 C         137.9669  142.5709  164.4700 C.3     1  UNL1        0.0415
@<TRIPOS>BOND
     1     3     4    1
     2     4     5    1
     3     5     6    1
     4     6     7    1
     5     7     2    1
     6     2     1    1
     7     1    17    1
     8    17    18    1
     9    18    19   ar
    10    19    20   ar
    11    20    24    1
    12    24    25    1
    13    24    26    1
    14    24    27    1
    15    20    21   ar
    16    21    22   ar
    17    22    28    1
    18    28    29    1
    19    28    30    1
    20    30    31    1
    21    22    23   ar
    22     7    10    1
    23    10    11   ar
    24    11    12   ar
    25    12    13   ar
    26    13    14    1
    27    13    15   ar
    28    15    16   ar
    29     7     8    1
    30     8     9    1
    31     9     4    1
    32    23    18   ar
    33    16    10   ar
    34    31    28    1
@<TRIPOS>MOLECULE
*****
 31 34 0 0 0
SMALL
GASTEIGER

@<TRIPOS>ATOM
      1 O         141.7620  138.0955  162.3632 O.3     1  UNL1       -0.3470
      2 C         140.3043  137.7841  162.5303 C.3     1  UNL1        0.1467
      3 C         138.0067  140.5235  158.0516 C.3     1  UNL1        0.0896
      4 N         138.4277  139.9214  159.3594 N.3     1  UNL1       -0.2715
      5 C         137.6785  140.2564  160.6149 C.3     1  UNL1        0.0725
      6 C         138.0994  139.6544  161.9227 C.3     1  UNL1        0.0238
      7 C         139.2695  138.7174  161.9750 C.3     1  UNL1        0.0489
      8 C         140.0187  138.3824  160.7195 C.3     1  UNL1        0.0238
      9 C         139.5978  138.9844  159.4117 C.3     1  UNL1        0.0725
     10 C         138.8796  138.7283  163.4235 C.ar    1  UNL1       -0.0202
     11 C         138.4891  140.0164  164.0854 C.ar    1  UNL1       -0.0019
     12 C         138.0992  140.0274  165.5338 C.ar    1  UNL1        0.0293
     13 C         138.1000  138.7501  166.3202 C.ar    1  UNL1        0.1401
     14 F         137.7101  138.7610  167.7687 F       1  UNL1       -0.2042
     15 C         138.4905  137.4619  165.6584 C.ar    1  UNL1        0.0293
     16 C         138.8804  137.4510  164.2100 C.ar    1  UNL1       -0.0019
     17 C         142.6070  138.3977  163.5652 C.3     1  UNL1        0.1874
     18 C         142.1910  139.4746  164.5229 C.ar    1  UNL1        0.0884
     19 C         141.9338  139.1398  165.9623 C.ar    1  UNL1        0.0211
     20 C         141.5178  140.2167  166.9199 C.ar    1  UNL1        0.0739
     21 C         141.3588  141.6283  166.4383 C.ar    1  UNL1        0.0212
     22 C         141.6159  141.9631  164.9988 C.ar    1  UNL1        0.0880
     23 N         142.0320  140.8862  164.0411 N.ar    1  UNL1       -0.2489
     24 C         141.2607  139.8820  168.3594 C.3     1  UNL1        0.4187
     25 F         141.0035  139.5474  169.7987 F       1  UNL1       -0.1659
     26 F         139.9769  140.6564  168.3100 F       1  UNL1       -0.1659
     27 F         142.5444  139.1077  168.4086 F       1  UNL1       -0.1659
     28 C         141.4570  143.3747  164.5172 C.3     1  UNL1        0.1686
     29 F         142.8550  143.8786  164.7214 F       1  UNL1       -0.2340
     30 C         140.8126  144.6114  163.9646 C.3     1  UNL1        0.0415
     31 C         140.0038  143.3611  164.1457 C.3     1  UNL1        0.0415
@<TRIPOS>BOND
     1     3     4    1
     2     4     5    1
     3     5     6    1
     4     6     7    1
     5     7     2    1
     6     2     1    1
     7     1    17    1
     8    17    18    1
     9    18    19   ar
    10    19    20   ar
    11    20    24    1
    12    24    25    1
    13    24    26    1
    14    24    27    1
    15    20    21   ar
    16    21    22   ar
    17    22    28    1
    18    28    29    1
    19    28    30    1
    20    30    31    1
    21    22    23   ar
    22     7    10    1
    23    10    11   ar
    24    11    12   ar
    25    12    13   ar
    26    13    14    1
    27    13    15   ar
    28    15    16   ar
    29     7     8    1
    30     8     9    1
    31     9     4    1
    32    23    18   ar
    33    16    10   ar
    34    31    28    1
@<TRIPOS>MOLECULE
*****
 31 34 0 0 0
SMALL
GASTEIGER

@<TRIPOS>ATOM
      1 O         141.9105  138.1998  162.7214 O.3     1  UNL1       -0.3470
      2 C         140.4618  137.8349  162.8556 C.3     1  UNL1        0.1467
      3 C         138.2594  140.3469  158.1992 C.3     1  UNL1        0.0896
      4 N         138.6428  139.7974  159.5413 N.3     1  UNL1       -0.2715
      5 C         137.8123  140.1188  160.7483 C.3     1  UNL1        0.0725
      6 C         138.1957  139.5693  162.0904 C.3     1  UNL1        0.0238
      7 C         139.4095  138.6984  162.2253 C.3     1  UNL1        0.0489
      8 C         140.2399  138.3770  161.0183 C.3     1  UNL1        0.0238
      9 C         139.8565  138.9265  159.6762 C.3     1  UNL1        0.0725
     10 C         138.9445  138.7199  163.6513 C.ar    1  UNL1       -0.0202
     11 C         138.9130  137.4501  164.4492 C.ar    1  UNL1       -0.0019
     12 C         138.4480  137.4716  165.8751 C.ar    1  UNL1        0.0293
     13 C         138.0145  138.7629  166.5032 C.ar    1  UNL1        0.1401
     14 F         137.5495  138.7845  167.9291 F       1  UNL1       -0.2042
     15 C         138.0460  140.0328  165.7054 C.ar    1  UNL1        0.0293
     16 C         138.5110  140.0113  164.2794 C.ar    1  UNL1       -0.0019
     17 C         142.7077  138.5651  163.9385 C.3     1  UNL1        0.1874
     18 C         142.2031  139.6213  164.8764 C.ar    1  UNL1        0.0884
     19 C         141.9792  141.0194  164.3809 C.ar    1  UNL1        0.0211
     20 C         141.4746  142.0755  165.3189 C.ar    1  UNL1        0.0739
     21 C         141.1939  141.7338  166.7522 C.ar    1  UNL1        0.0212
     22 C         141.4178  140.3358  167.2476 C.ar    1  UNL1        0.0880
     23 N         141.9224  139.2795  166.3097 N.ar    1  UNL1       -0.2489
     24 C         141.2507  143.4736  164.8235 C.3     1  UNL1        0.4187
     25 F         141.0267  144.8716  164.3282 F       1  UNL1       -0.1659
     26 F         139.9102  143.4973  165.4964 F       1  UNL1       -0.1659
     27 F         142.5910  143.4499  164.1506 F       1  UNL1       -0.1659
     28 C         141.1371  139.9941  168.6809 C.3     1  UNL1        0.1686
     29 F         142.2632  139.0394  168.9464 F       1  UNL1       -0.2340
     30 C         140.4654  139.9839  170.0220 C.3     1  UNL1        0.0415
     31 C         139.9136  140.8301  168.9132 C.3     1  UNL1        0.0415
@<TRIPOS>BOND
     1     3     4    1
     2     4     5    1
     3     5     6    1
     4     6     7    1
     5     7     2    1
     6     2     1    1
     7     1    17    1
     8    17    18    1
     9    18    19   ar
    10    19    20   ar
    11    20    24    1
    12    24    25    1
    13    24    26    1
    14    24    27    1
    15    20    21   ar
    16    21    22   ar
    17    22    28    1
    18    28    29    1
    19    28    30    1
    20    30    31    1
    21    22    23   ar
    22     7    10    1
    23    10    11   ar
    24    11    12   ar
    25    12    13   ar
    26    13    14    1
    27    13    15   ar
    28    15    16   ar
    29     7     8    1
    30     8     9    1
    31     9     4    1
    32    23    18   ar
    33    16    10   ar
    34    31    28    1
@<TRIPOS>MOLECULE
*****
 31 34 0 0 0
SMALL
GASTEIGER

@<TRIPOS>ATOM
      1 O         140.7619  143.1870  165.8946 O.3     1  UNL1       -0.3470
      2 C         142.0080  142.3524  165.9180 C.3     1  UNL1        0.1467
      3 C         141.8216  140.9968  171.4830 C.3     1  UNL1        0.0896
      4 N         141.9542  141.1149  169.9936 N.3     1  UNL1       -0.2715
      5 C         142.4423  139.9467  169.1891 C.3     1  UNL1        0.0725
      6 C         142.5749  140.0648  167.6997 C.3     1  UNL1        0.0238
      7 C         142.2194  141.3510  167.0147 C.3     1  UNL1        0.0489
      8 C         141.7314  142.5192  167.8191 C.3     1  UNL1        0.0238
      9 C         141.5988  142.4011  169.3086 C.3     1  UNL1        0.0725
     10 C         142.6340  140.5306  165.8293 C.ar    1  UNL1       -0.0202
     11 C         142.3295  139.0624  165.7899 C.ar    1  UNL1       -0.0019
     12 C         142.7441  138.2419  164.6046 C.ar    1  UNL1        0.0293
     13 C         143.4632  138.8898  163.4587 C.ar    1  UNL1        0.1401
     14 F         143.8778  138.0693  162.2733 F       1  UNL1       -0.2042
     15 C         143.7678  140.3580  163.4980 C.ar    1  UNL1        0.0293
     16 C         143.3532  141.1784  164.6834 C.ar    1  UNL1       -0.0019
     17 C         139.5753  142.7408  165.0927 C.3     1  UNL1        0.1874
     18 C         139.4232  141.2962  164.7186 C.ar    1  UNL1        0.0884
     19 C         138.7799  140.3372  165.6761 C.ar    1  UNL1        0.0211
     20 C         138.6279  138.8927  165.3019 C.ar    1  UNL1        0.0739
     21 C         139.1191  138.4070  163.9704 C.ar    1  UNL1        0.0212
     22 C         139.7624  139.3660  163.0130 C.ar    1  UNL1        0.0880
     23 N         139.9144  140.8106  163.3871 N.ar    1  UNL1       -0.2489
     24 C         137.9847  137.9336  166.2593 C.3     1  UNL1        0.4187
     25 F         137.3415  136.9745  167.2166 F       1  UNL1       -0.1659
     26 F         138.6375  136.7856  165.5478 F       1  UNL1       -0.1659
     27 F         137.3319  139.0816  166.9707 F       1  UNL1       -0.1659
     28 C         140.2535  138.8803  161.6815 C.3     1  UNL1        0.1686
     29 F         140.0686  137.4023  161.8590 F       1  UNL1       -0.2340
     30 C         140.8089  138.9078  160.2885 C.3     1  UNL1        0.0415
     31 C         140.6090  140.1895  161.0417 C.3     1  UNL1        0.0415
@<TRIPOS>BOND
     1     3     4    1
     2     4     5    1
     3     5     6    1
     4     6     7    1
     5     7     2    1
     6     2     1    1
     7     1    17    1
     8    17    18    1
     9    18    19   ar
    10    19    20   ar
    11    20    24    1
    12    24    25    1
    13    24    26    1
    14    24    27    1
    15    20    21   ar
    16    21    22   ar
    17    22    28    1
    18    28    29    1
    19    28    30    1
    20    30    31    1
    21    22    23   ar
    22     7    10    1
    23    10    11   ar
    24    11    12   ar
    25    12    13   ar
    26    13    14    1
    27    13    15   ar
    28    15    16   ar
    29     7     8    1
    30     8     9    1
    31     9     4    1
    32    23    18   ar
    33    16    10   ar
    34    31    28    1
@<TRIPOS>MOLECULE
*****
 31 34 0 0 0
SMALL
GASTEIGER

@<TRIPOS>ATOM
      1 O         143.3654  140.4567  165.6847 O.3     1  UNL1       -0.3470
      2 C         142.2580  139.4727  165.9200 C.3     1  UNL1        0.1467
      3 C         140.9503  140.8473  171.3276 C.3     1  UNL1        0.0896
      4 N         141.0420  140.4794  169.8763 N.3     1  UNL1       -0.2715
      5 C         139.7913  140.2806  169.0725 C.3     1  UNL1        0.0725
      6 C         139.8829  139.9127  167.6212 C.3     1  UNL1        0.0238
      7 C         141.2253  139.7435  166.9738 C.3     1  UNL1        0.0489
      8 C         142.4761  139.9423  167.7775 C.3     1  UNL1        0.0238
      9 C         142.3844  140.3103  169.2288 C.3     1  UNL1        0.0725
     10 C         140.3332  139.4507  165.8040 C.ar    1  UNL1       -0.0202
     11 C         139.0298  140.1777  165.6543 C.ar    1  UNL1       -0.0019
     12 C         138.1376  139.8849  164.4846 C.ar    1  UNL1        0.0293
     13 C         138.5490  138.8650  163.4645 C.ar    1  UNL1        0.1401
     14 F         137.6568  138.5721  162.2947 F       1  UNL1       -0.2042
     15 C         139.8524  138.1379  163.6141 C.ar    1  UNL1        0.0293
     16 C         140.7445  138.4307  164.7839 C.ar    1  UNL1       -0.0019
     17 C         143.3115  141.3778  164.5020 C.3     1  UNL1        0.1874
     18 C         141.9937  141.9183  164.0318 C.ar    1  UNL1        0.0884
     19 C         141.2615  142.9336  164.8584 C.ar    1  UNL1        0.0211
     20 C         139.9437  143.4740  164.3882 C.ar    1  UNL1        0.0739
     21 C         139.3580  142.9993  163.0914 C.ar    1  UNL1        0.0212
     22 C         140.0902  141.9841  162.2648 C.ar    1  UNL1        0.0880
     23 N         141.4080  141.4436  162.7350 N.ar    1  UNL1       -0.2489
     24 C         139.2114  144.4893  165.2147 C.3     1  UNL1        0.4187
     25 F         138.4792  145.5045  166.0413 F       1  UNL1       -0.1659
     26 F         139.6389  143.7795  166.4651 F       1  UNL1       -0.1659
     27 F         138.7840  145.1990  163.9643 F       1  UNL1       -0.1659
     28 C         139.5045  141.5094  160.9680 C.3     1  UNL1        0.1686
     29 F         140.6281  140.6464  160.4752 F       1  UNL1       -0.2340
     30 C         138.5287  141.3344  159.8424 C.3     1  UNL1        0.0415
     31 C         138.1776  142.2076  161.0105 C.3     1  UNL1        0.0415
@<TRIPOS>BOND
     1     3     4    1
     2     4     5    1
     3     5     6    1
     4     6     7    1
     5     7     2    1
     6     2     1    1
     7     1    17    1
     8    17    18    1
     9    18    19   ar
    10    19    20   ar
    11    20    24    1
    12    24    25    1
    13    24    26    1
    14    24    27    1
    15    20    21   ar
    16    21    22   ar
    17    22    28    1
    18    28    29    1
    19    28    30    1
    20    30    31    1
    21    22    23   ar
    22     7    10    1
    23    10    11   ar
    24    11    12   ar
    25    12    13   ar
    26    13    14    1
    27    13    15   ar
    28    15    16   ar
    29     7     8    1
    30     8     9    1
    31     9     4    1
    32    23    18   ar
    33    16    10   ar
    34    31    28    1
@<TRIPOS>MOLECULE
*****
 31 34 0 0 0
SMALL
GASTEIGER

@<TRIPOS>ATOM
      1 O         138.2281  138.7607  164.7807 O.3     1  UNL1       -0.3470
      2 C         138.1036  139.9607  163.8894 C.3     1  UNL1        0.1467
      3 C         141.6029  138.3924  159.6306 C.3     1  UNL1        0.0896
      4 N         140.8032  139.0274  160.7293 N.3     1  UNL1       -0.2715
      5 C         141.0600  140.4538  161.1159 C.3     1  UNL1        0.0725
      6 C         140.2603  141.0887  162.2146 C.3     1  UNL1        0.0238
      7 C         139.2037  140.2973  162.9268 C.3     1  UNL1        0.0489
      8 C         138.9468  138.8710  162.5403 C.3     1  UNL1        0.0238
      9 C         139.7466  138.2360  161.4415 C.3     1  UNL1        0.0725
     10 C         139.0785  141.6068  163.6477 C.ar    1  UNL1       -0.0202
     11 C         140.3069  142.3103  164.1439 C.ar    1  UNL1       -0.0019
     12 C         140.1817  143.6197  164.8647 C.ar    1  UNL1        0.0293
     13 C         138.8281  144.2257  165.0893 C.ar    1  UNL1        0.1401
     14 F         138.7030  145.5352  165.8102 F       1  UNL1       -0.2042
     15 C         137.5997  143.5224  164.5931 C.ar    1  UNL1        0.0293
     16 C         137.7249  142.2129  163.8723 C.ar    1  UNL1       -0.0019
     17 C         138.6945  138.9237  166.1970 C.3     1  UNL1        0.1874
     18 C         139.9940  139.6159  166.4837 C.ar    1  UNL1        0.0884
     19 C         140.0406  140.7450  167.4702 C.ar    1  UNL1        0.0211
     20 C         141.3401  141.4372  167.7568 C.ar    1  UNL1        0.0739
     21 C         142.5929  141.0004  167.0570 C.ar    1  UNL1        0.0212
     22 C         142.5463  139.8714  166.0706 C.ar    1  UNL1        0.0880
     23 N         141.2468  139.1791  165.7839 N.ar    1  UNL1       -0.2489
     24 C         141.3868  142.5663  168.7433 C.3     1  UNL1        0.4187
     25 F         141.4335  143.6954  169.7296 F       1  UNL1       -0.1659
     26 F         140.1420  143.1455  168.1391 F       1  UNL1       -0.1659
     27 F         142.6316  141.9870  169.3473 F       1  UNL1       -0.1659
     28 C         143.7991  139.4346  165.3708 C.3     1  UNL1        0.1686
     29 F         144.0151  138.1044  166.0296 F       1  UNL1       -0.2340
     30 C         144.9769  139.4597  164.4423 C.3     1  UNL1        0.0415
     31 C         144.0182  140.6131  164.4691 C.3     1  UNL1        0.0415
@<TRIPOS>BOND
     1     3     4    1
     2     4     5    1
     3     5     6    1
     4     6     7    1
     5     7     2    1
     6     2     1    1
     7     1    17    1
     8    17    18    1
     9    18    19   ar
    10    19    20   ar
    11    20    24    1
    12    24    25    1
    13    24    26    1
    14    24    27    1
    15    20    21   ar
    16    21    22   ar
    17    22    28    1
    18    28    29    1
    19    28    30    1
    20    30    31    1
    21    22    23   ar
    22     7    10    1
    23    10    11   ar
    24    11    12   ar
    25    12    13   ar
    26    13    14    1
    27    13    15   ar
    28    15    16   ar
    29     7     8    1
    30     8     9    1
    31     9     4    1
    32    23    18   ar
    33    16    10   ar
    34    31    28    1
@<TRIPOS>MOLECULE
*****
 31 34 0 0 0
SMALL
GASTEIGER

@<TRIPOS>ATOM
      1 O         138.4724  139.1116  163.3539 O.3     1  UNL1       -0.3470
      2 C         138.7152  140.5330  162.9409 C.3     1  UNL1        0.1467
      3 C         143.7738  139.7023  160.3793 C.3     1  UNL1        0.0896
      4 N         142.5524  140.1351  161.1349 N.3     1  UNL1       -0.2715
      5 C         142.5599  141.4280  161.8952 C.3     1  UNL1        0.0725
      6 C         141.3385  141.8608  162.6508 C.3     1  UNL1        0.0238
      7 C         140.1097  141.0006  162.6461 C.3     1  UNL1        0.0489
      8 C         140.1022  139.7077  161.8857 C.3     1  UNL1        0.0238
      9 C         141.3236  139.2749  161.1301 C.3     1  UNL1        0.0725
     10 C         139.6328  142.1312  163.5088 C.ar    1  UNL1       -0.0202
     11 C         140.3900  142.4980  164.7506 C.ar    1  UNL1       -0.0019
     12 C         139.9132  143.6286  165.6134 C.ar    1  UNL1        0.0293
     13 C         138.6791  144.3924  165.2343 C.ar    1  UNL1        0.1401
     14 F         138.2022  145.5230  166.0971 F       1  UNL1       -0.2042
     15 C         137.9218  144.0256  163.9926 C.ar    1  UNL1        0.0293
     16 C         138.3987  142.8950  163.1298 C.ar    1  UNL1       -0.0019
     17 C         138.3952  138.7561  164.8091 C.3     1  UNL1        0.1874
     18 C         139.4897  139.1791  165.7435 C.ar    1  UNL1        0.0884
     19 C         140.9129  138.8076  165.4488 C.ar    1  UNL1        0.0211
     20 C         142.0073  139.2307  166.3832 C.ar    1  UNL1        0.0739
     21 C         141.6787  140.0252  167.6123 C.ar    1  UNL1        0.0212
     22 C         140.2556  140.3967  167.9071 C.ar    1  UNL1        0.0880
     23 N         139.1611  139.9737  166.9727 N.ar    1  UNL1       -0.2489
     24 C         143.4304  138.8592  166.0885 C.3     1  UNL1        0.4187
     25 F         144.8535  138.4878  165.7938 F       1  UNL1       -0.1659
     26 F         143.3157  139.4943  164.7344 F       1  UNL1       -0.1659
     27 F         143.5450  138.2242  167.4426 F       1  UNL1       -0.1659
     28 C         139.9271  141.1912  169.1362 C.3     1  UNL1        0.1686
     29 F         138.8413  140.3348  169.7174 F       1  UNL1       -0.2340
     30 C         139.9756  142.2831  170.1635 C.3     1  UNL1        0.0415
     31 C         140.8987  142.3235  168.9819 C.3     1  UNL1        0.0415
@<TRIPOS>BOND
     1     3     4    1
     2     4     5    1
     3     5     6    1
     4     6     7    1
     5     7     2    1
     6     2     1    1
     7     1    17    1
     8    17    18    1
     9    18    19   ar
    10    19    20   ar
    11    20    24    1
    12    24    25    1
    13    24    26    1
    14    24    27    1
    15    20    21   ar
    16    21    22   ar
    17    22    28    1
    18    28    29    1
    19    28    30    1
    20    30    31    1
    21    22    23   ar
    22     7    10    1
    23    10    11   ar
    24    11    12   ar
    25    12    13   ar
    26    13    14    1
    27    13    15   ar
    28    15    16   ar
    29     7     8    1
    30     8     9    1
    31     9     4    1
    32    23    18   ar
    33    16    10   ar
    34    31    28    1
@<TRIPOS>MOLECULE
*****
 31 34 0 0 0
SMALL
GASTEIGER

@<TRIPOS>ATOM
      1 O         143.6308  138.6671  163.5984 O.3     1  UNL1       -0.3470
      2 C         142.2901  138.0126  163.4425 C.3     1  UNL1        0.1467
      3 C         141.8254  138.3356  157.7397 C.3     1  UNL1        0.0896
      4 N         141.7032  138.3194  159.2346 N.3     1  UNL1       -0.2715
      5 C         140.3958  138.6643  159.8840 C.3     1  UNL1        0.0725
      6 C         140.2736  138.6481  161.3789 C.3     1  UNL1        0.0238
      7 C         141.4587  138.2870  162.2245 C.3     1  UNL1        0.0489
      8 C         142.7661  137.9421  161.5751 C.3     1  UNL1        0.0238
      9 C         142.8883  137.9583  160.0802 C.3     1  UNL1        0.0725
     10 C         140.4400  138.5366  163.2969 C.ar    1  UNL1       -0.0202
     11 C         139.7773  139.8780  163.4042 C.ar    1  UNL1       -0.0019
     12 C         138.7586  140.1276  164.4765 C.ar    1  UNL1        0.0293
     13 C         138.4027  139.0358  165.4416 C.ar    1  UNL1        0.1401
     14 F         137.3840  139.2854  166.5140 F       1  UNL1       -0.2042
     15 C         139.0654  137.6945  165.3343 C.ar    1  UNL1        0.0293
     16 C         140.0841  137.4448  164.2619 C.ar    1  UNL1       -0.0019
     17 C         143.9187  139.5083  164.8065 C.3     1  UNL1        0.1874
     18 C         142.9191  140.5279  165.2660 C.ar    1  UNL1        0.0884
     19 C         142.0838  140.2635  166.4836 C.ar    1  UNL1        0.0211
     20 C         141.0841  141.2831  166.9430 C.ar    1  UNL1        0.0739
     21 C         140.9197  142.5670  166.1850 C.ar    1  UNL1        0.0212
     22 C         141.7550  142.8313  164.9674 C.ar    1  UNL1        0.0880
     23 N         142.7547  141.8118  164.5079 N.ar    1  UNL1       -0.2489
     24 C         140.2488  141.0189  168.1607 C.3     1  UNL1        0.4187
     25 F         139.4135  140.7546  169.3782 F       1  UNL1       -0.1659
     26 F         140.3779  139.5425  167.9287 F       1  UNL1       -0.1659
     27 F         140.1198  142.4952  168.3925 F       1  UNL1       -0.1659
     28 C         141.5905  144.1151  164.2094 C.3     1  UNL1        0.1686
     29 F         140.0994  144.1328  164.0474 F       1  UNL1       -0.2340
     30 C         141.9439  145.3929  163.5076 C.3     1  UNL1        0.0415
     31 C         143.0245  144.5434  164.1081 C.3     1  UNL1        0.0415
@<TRIPOS>BOND
     1     3     4    1
     2     4     5    1
     3     5     6    1
     4     6     7    1
     5     7     2    1
     6     2     1    1
     7     1    17    1
     8    17    18    1
     9    18    19   ar
    10    19    20   ar
    11    20    24    1
    12    24    25    1
    13    24    26    1
    14    24    27    1
    15    20    21   ar
    16    21    22   ar
    17    22    28    1
    18    28    29    1
    19    28    30    1
    20    30    31    1
    21    22    23   ar
    22     7    10    1
    23    10    11   ar
    24    11    12   ar
    25    12    13   ar
    26    13    14    1
    27    13    15   ar
    28    15    16   ar
    29     7     8    1
    30     8     9    1
    31     9     4    1
    32    23    18   ar
    33    16    10   ar
    34    31    28    1
