@<TRIPOS>MOLECULE
*****
 26 28 0 0 0
SMALL
GASTEIGER

@<TRIPOS>ATOM
      1 C         139.4619  138.6572  164.8837 C.3     1  UNL1        0.0845
      2 C         140.2332  137.4518  164.4344 C.3     1  UNL1        0.0221
      3 C         139.7064  139.2399  166.2441 C.3     1  UNL1        0.1184
      4 C         141.0206  139.8924  166.5554 C.2     1  UNL1       -0.0143
      5 C         141.2651  140.4751  167.9159 C.ar    1  UNL1        0.0124
      6 C         142.5793  141.1276  168.2272 C.ar    1  UNL1        0.0124
      7 C         142.8237  141.7102  169.5876 C.ar    1  UNL1        0.0577
      8 CL        144.1380  142.3628  169.8989 Cl      1  UNL1       -0.0822
      9 C         141.7539  141.6403  170.6367 C.ar    1  UNL1        0.0127
     10 C         140.4397  140.9878  170.3254 C.ar    1  UNL1        0.0175
     11 C         140.1953  140.4052  168.9650 C.ar    1  UNL1        0.0731
     12 N         138.8810  139.7526  168.6537 N.am    1  UNL1       -0.1789
     13 C         138.6366  139.1700  167.2933 C.2     1  UNL1        0.2508
     14 O         137.3223  138.5174  166.9819 O.2     1  UNL1       -0.2726
     15 N         138.4460  139.2800  163.9726 N.pl3   1  UNL1       -0.3037
     16 H         137.6547  138.7654  163.6927 H       1  UNL1        0.1496
     17 C         138.2706  143.2407  163.7944 C.ar    1  UNL1        0.2387
     18 N         138.0809  141.8339  164.2791 N.ar    1  UNL1       -0.1783
     19 C         138.6357  140.6867  163.4878 C.ar    1  UNL1        0.2195
     20 N         139.3804  140.9463  162.2119 N.ar    1  UNL1       -0.2114
     21 C         139.5702  142.3531  161.7271 C.ar    1  UNL1        0.1168
     22 C         139.0153  143.5003  162.5184 C.ar    1  UNL1        0.1406
     23 C         138.5346  145.0125  165.6761 C.3     1  UNL1        0.2543
     24 O         137.7157  144.3879  164.5856 O.3     1  UNL1       -0.4556
     25 C         139.2050  144.9071  162.0337 C.1     1  UNL1        0.1067
     26 N         139.3948  146.3138  161.5489 N.1     1  UNL1       -0.1906
@<TRIPOS>BOND
     1    23    24    1
     2    24    17    1
     3    17    18   ar
     4    18    19   ar
     5    19    15    1
     6    15     1    1
     7     1     2    1
     8     1     3    1
     9     3     4    1
    10     4     5    2
    11     5     6   ar
    12     6     7   ar
    13     7     8    1
    14     7     9   ar
    15     9    10   ar
    16    10    11   ar
    17    11    12    2
    18    12    13    1
    19    13    14    2
    20    19    20   ar
    21    20    21   ar
    22    21    22   ar
    23    22    25    1
    24    25    26    3
    25    22    17   ar
    26    13     3    1
    27    11     5   ar
    28    15    16    1
@<TRIPOS>MOLECULE
*****
 26 28 0 0 0
SMALL
GASTEIGER

@<TRIPOS>ATOM
      1 C         139.3727  138.8789  164.8249 C.3     1  UNL1        0.0845
      2 C         140.0925  137.6717  164.3010 C.3     1  UNL1        0.0221
      3 C         139.6500  139.3734  166.2137 C.3     1  UNL1        0.1184
      4 C         140.9591  140.0351  166.5268 C.2     1  UNL1       -0.0143
      5 C         141.2364  140.5296  167.9156 C.ar    1  UNL1        0.0124
      6 C         142.5456  141.1914  168.2287 C.ar    1  UNL1        0.0124
      7 C         142.8228  141.6859  169.6174 C.ar    1  UNL1        0.0577
      8 CL        144.1320  142.3477  169.9306 Cl      1  UNL1       -0.0822
      9 C         141.7908  141.5186  170.6931 C.ar    1  UNL1        0.0127
     10 C         140.4816  140.8568  170.3800 C.ar    1  UNL1        0.0175
     11 C         140.2044  140.3624  168.9913 C.ar    1  UNL1        0.0731
     12 N         138.8952  139.7006  168.6781 N.am    1  UNL1       -0.1789
     13 C         138.6180  139.2061  167.2894 C.2     1  UNL1        0.2508
     14 O         137.3087  138.5443  166.9762 O.2     1  UNL1       -0.2726
     15 N         138.3757  139.5916  163.9601 N.pl3   1  UNL1       -0.3037
     16 H         137.5467  139.1363  163.6868 H       1  UNL1        0.1496
     17 C         140.3096  142.9379  163.0589 C.ar    1  UNL1        0.2387
     18 N         140.0436  141.5313  163.5072 N.ar    1  UNL1       -0.1783
     19 C         138.6416  140.9981  163.5119 C.ar    1  UNL1        0.2195
     20 N         137.5055  141.8714  163.0683 N.ar    1  UNL1       -0.2114
     21 C         137.7715  143.2779  162.6200 C.ar    1  UNL1        0.1168
     22 C         139.1735  143.8112  162.6153 C.ar    1  UNL1        0.1406
     23 C         142.5197  143.4673  164.3178 C.3     1  UNL1        0.2543
     24 O         141.7116  143.4711  163.0542 O.3     1  UNL1       -0.4556
     25 C         139.4395  145.2177  162.1670 C.1     1  UNL1        0.1067
     26 N         139.7054  146.6242  161.7187 N.1     1  UNL1       -0.1906
@<TRIPOS>BOND
     1    23    24    1
     2    24    17    1
     3    17    18   ar
     4    18    19   ar
     5    19    15    1
     6    15     1    1
     7     1     2    1
     8     1     3    1
     9     3     4    1
    10     4     5    2
    11     5     6   ar
    12     6     7   ar
    13     7     8    1
    14     7     9   ar
    15     9    10   ar
    16    10    11   ar
    17    11    12    2
    18    12    13    1
    19    13    14    2
    20    19    20   ar
    21    20    21   ar
    22    21    22   ar
    23    22    25    1
    24    25    26    3
    25    22    17   ar
    26    13     3    1
    27    11     5   ar
    28    15    16    1
@<TRIPOS>MOLECULE
*****
 26 28 0 0 0
SMALL
GASTEIGER

@<TRIPOS>ATOM
      1 C         138.8406  144.2924  164.1091 C.3     1  UNL1        0.0845
      2 C         138.5555  144.9128  165.4446 C.3     1  UNL1        0.0221
      3 C         140.2572  144.0322  163.6899 C.3     1  UNL1        0.1184
      4 C         140.9692  142.8042  164.1745 C.2     1  UNL1       -0.0143
      5 C         142.3858  142.5441  163.7553 C.ar    1  UNL1        0.0124
      6 C         143.0979  141.3160  164.2399 C.ar    1  UNL1        0.0124
      7 C         144.5144  141.0560  163.8207 C.ar    1  UNL1        0.0577
      8 CL        145.2265  139.8279  164.3052 Cl      1  UNL1       -0.0822
      9 C         145.2189  142.0239  162.9170 C.ar    1  UNL1        0.0127
     10 C         144.5068  143.2520  162.4324 C.ar    1  UNL1        0.0175
     11 C         143.0903  143.5120  162.8516 C.ar    1  UNL1        0.0731
     12 N         142.3782  144.7402  162.3670 N.am    1  UNL1       -0.1789
     13 C         140.9616  145.0002  162.7862 C.2     1  UNL1        0.2508
     14 O         140.2495  146.2283  162.3016 O.2     1  UNL1       -0.2726
     15 N         137.7091  143.9320  163.1927 N.pl3   1  UNL1       -0.3037
     16 H         136.8169  144.3232  163.3346 H       1  UNL1        0.1496
     17 C         137.8189  140.5683  161.0895 C.ar    1  UNL1        0.2387
     18 N         137.5911  141.5249  162.2222 N.ar    1  UNL1       -0.1783
     19 C         137.9369  142.9754  162.0600 C.ar    1  UNL1        0.2195
     20 N         138.5105  143.4694  160.7650 N.ar    1  UNL1       -0.2114
     21 C         138.7383  142.5128  159.6323 C.ar    1  UNL1        0.1168
     22 C         138.3925  141.0622  159.7945 C.ar    1  UNL1        0.1406
     23 C         138.3950  138.2069  162.0071 C.3     1  UNL1        0.2543
     24 O         137.4732  139.1177  161.2518 O.3     1  UNL1       -0.4556
     25 C         138.6204  140.1057  158.6618 C.1     1  UNL1        0.1067
     26 N         138.8482  139.1492  157.5291 N.1     1  UNL1       -0.1906
@<TRIPOS>BOND
     1    23    24    1
     2    24    17    1
     3    17    18   ar
     4    18    19   ar
     5    19    15    1
     6    15     1    1
     7     1     2    1
     8     1     3    1
     9     3     4    1
    10     4     5    2
    11     5     6   ar
    12     6     7   ar
    13     7     8    1
    14     7     9   ar
    15     9    10   ar
    16    10    11   ar
    17    11    12    2
    18    12    13    1
    19    13    14    2
    20    19    20   ar
    21    20    21   ar
    22    21    22   ar
    23    22    25    1
    24    25    26    3
    25    22    17   ar
    26    13     3    1
    27    11     5   ar
    28    15    16    1
@<TRIPOS>MOLECULE
*****
 26 28 0 0 0
SMALL
GASTEIGER

@<TRIPOS>ATOM
      1 C         142.2924  140.8717  167.1557 C.3     1  UNL1        0.0845
      2 C         142.8218  141.5998  168.3555 C.3     1  UNL1        0.0221
      3 C         141.2028  141.4847  166.3267 C.3     1  UNL1        0.1184
      4 C         141.4924  142.6870  165.4780 C.2     1  UNL1       -0.0143
      5 C         140.4028  143.3001  164.6490 C.ar    1  UNL1        0.0124
      6 C         140.6925  144.5024  163.8003 C.ar    1  UNL1        0.0124
      7 C         139.6029  145.1154  162.9714 C.ar    1  UNL1        0.0577
      8 CL        139.8925  146.3178  162.1226 Cl      1  UNL1       -0.0822
      9 C         138.2237  144.5260  162.9913 C.ar    1  UNL1        0.0127
     10 C         137.9340  143.3237  163.8401 C.ar    1  UNL1        0.0175
     11 C         139.0236  142.7107  164.6690 C.ar    1  UNL1        0.0731
     12 N         138.7340  141.5083  165.5178 N.am    1  UNL1       -0.1789
     13 C         139.8236  140.8953  166.3467 C.2     1  UNL1        0.2508
     14 O         139.5340  139.6929  167.1955 O.2     1  UNL1       -0.2726
     15 N         142.8526  139.5306  166.7847 N.pl3   1  UNL1       -0.3037
     16 H         143.1716  138.9189  167.4871 H       1  UNL1        0.1496
     17 C         141.8940  137.9024  163.2947 C.ar    1  UNL1        0.2387
     18 N         141.8199  138.3116  164.7359 N.ar    1  UNL1       -0.1783
     19 C         142.9267  139.1213  165.3435 C.ar    1  UNL1        0.2195
     20 N         144.1078  139.5218  164.5100 N.ar    1  UNL1       -0.2114
     21 C         144.1819  139.1126  163.0688 C.ar    1  UNL1        0.1168
     22 C         143.0750  138.3028  162.4611 C.ar    1  UNL1        0.1406
     23 C         139.5521  137.7743  162.1771 C.3     1  UNL1        0.2543
     24 O         140.7871  137.0927  162.6871 O.3     1  UNL1       -0.4556
     25 C         143.1492  137.8936  161.0200 C.1     1  UNL1        0.1067
     26 N         143.2233  137.4843  159.5788 N.1     1  UNL1       -0.1906
@<TRIPOS>BOND
     1    23    24    1
     2    24    17    1
     3    17    18   ar
     4    18    19   ar
     5    19    15    1
     6    15     1    1
     7     1     2    1
     8     1     3    1
     9     3     4    1
    10     4     5    2
    11     5     6   ar
    12     6     7   ar
    13     7     8    1
    14     7     9   ar
    15     9    10   ar
    16    10    11   ar
    17    11    12    2
    18    12    13    1
    19    13    14    2
    20    19    20   ar
    21    20    21   ar
    22    21    22   ar
    23    22    25    1
    24    25    26    3
    25    22    17   ar
    26    13     3    1
    27    11     5   ar
    28    15    16    1
@<TRIPOS>MOLECULE
*****
 26 28 0 0 0
SMALL
GASTEIGER

@<TRIPOS>ATOM
      1 C         138.4317  141.7435  164.8892 C.3     1  UNL1        0.0845
      2 C         138.4943  143.1977  164.5270 C.3     1  UNL1        0.0221
      3 C         139.2365  141.2225  166.0429 C.3     1  UNL1        0.1184
      4 C         140.4047  142.0095  166.5585 C.2     1  UNL1       -0.0143
      5 C         141.2095  141.4886  167.7122 C.ar    1  UNL1        0.0124
      6 C         142.3777  142.2756  168.2278 C.ar    1  UNL1        0.0124
      7 C         143.1825  141.7547  169.3814 C.ar    1  UNL1        0.0577
      8 CL        144.3508  142.5417  169.8970 Cl      1  UNL1       -0.0822
      9 C         142.8190  140.4467  170.0195 C.ar    1  UNL1        0.0127
     10 C         141.6508  139.6597  169.5039 C.ar    1  UNL1        0.0175
     11 C         140.8461  140.1806  168.3503 C.ar    1  UNL1        0.0731
     12 N         139.6778  139.3936  167.8346 N.am    1  UNL1       -0.1789
     13 C         138.8731  139.9145  166.6810 C.2     1  UNL1        0.2508
     14 O         137.7048  139.1275  166.1654 O.2     1  UNL1       -0.2726
     15 N         137.5642  140.8101  164.0978 N.pl3   1  UNL1       -0.3037
     16 H         136.6667  140.5742  164.4267 H       1  UNL1        0.1496
     17 C         139.6769  138.6563  161.5196 C.ar    1  UNL1        0.2387
     18 N         139.1769  139.2303  162.8121 N.ar    1  UNL1       -0.1783
     19 C         138.0641  140.2361  162.8053 C.ar    1  UNL1        0.2195
     20 N         137.4512  140.6678  161.5061 N.ar    1  UNL1       -0.2114
     21 C         137.9511  140.0938  160.2136 C.ar    1  UNL1        0.1168
     22 C         139.0640  139.0880  160.2204 C.ar    1  UNL1        0.1406
     23 C         141.7039  137.5514  162.7114 C.3     1  UNL1        0.2543
     24 O         140.7897  137.6505  161.5263 O.3     1  UNL1       -0.4556
     25 C         139.5639  138.5139  158.9279 C.1     1  UNL1        0.1067
     26 N         140.0639  137.9399  157.6354 N.1     1  UNL1       -0.1906
@<TRIPOS>BOND
     1    23    24    1
     2    24    17    1
     3    17    18   ar
     4    18    19   ar
     5    19    15    1
     6    15     1    1
     7     1     2    1
     8     1     3    1
     9     3     4    1
    10     4     5    2
    11     5     6   ar
    12     6     7   ar
    13     7     8    1
    14     7     9   ar
    15     9    10   ar
    16    10    11   ar
    17    11    12    2
    18    12    13    1
    19    13    14    2
    20    19    20   ar
    21    20    21   ar
    22    21    22   ar
    23    22    25    1
    24    25    26    3
    25    22    17   ar
    26    13     3    1
    27    11     5   ar
    28    15    16    1
@<TRIPOS>MOLECULE
*****
 26 28 0 0 0
SMALL
GASTEIGER

@<TRIPOS>ATOM
      1 C         138.8756  144.2932  164.0665 C.3     1  UNL1        0.0845
      2 C         138.5671  144.8610  165.4201 C.3     1  UNL1        0.0221
      3 C         140.2969  144.0143  163.6763 C.3     1  UNL1        0.1184
      4 C         140.9865  142.7831  164.1847 C.2     1  UNL1       -0.0143
      5 C         142.4078  142.5043  163.7944 C.ar    1  UNL1        0.0124
      6 C         143.0974  141.2730  164.3028 C.ar    1  UNL1        0.0124
      7 C         144.5186  140.9943  163.9126 C.ar    1  UNL1        0.0577
      8 CL        145.2083  139.7630  164.4210 Cl      1  UNL1       -0.0822
      9 C         145.2502  141.9467  163.0140 C.ar    1  UNL1        0.0127
     10 C         144.5607  143.1779  162.5056 C.ar    1  UNL1        0.0175
     11 C         143.1394  143.4567  162.8958 C.ar    1  UNL1        0.0731
     12 N         142.4498  144.6880  162.3874 N.am    1  UNL1       -0.1789
     13 C         141.0285  144.9668  162.7777 C.2     1  UNL1        0.2508
     14 O         140.3389  146.1981  162.2693 O.2     1  UNL1       -0.2726
     15 N         137.7628  144.0041  163.1031 N.pl3   1  UNL1       -0.3037
     16 H         136.8918  144.4506  163.2088 H       1  UNL1        0.1496
     17 C         138.7643  142.5419  159.5522 C.ar    1  UNL1        0.2387
     18 N         138.5499  143.5113  160.6767 N.ar    1  UNL1       -0.1783
     19 C         137.9772  143.0348  161.9786 C.ar    1  UNL1        0.2195
     20 N         137.6188  141.5891  162.1561 N.ar    1  UNL1       -0.2114
     21 C         137.8332  140.6198  161.0316 C.ar    1  UNL1        0.1168
     22 C         138.4059  141.0962  159.7296 C.ar    1  UNL1        0.1406
     23 C         139.9907  144.3658  158.1668 C.3     1  UNL1        0.2543
     24 O         139.3370  143.0183  158.2503 O.3     1  UNL1       -0.4556
     25 C         138.6203  140.1269  158.6051 C.1     1  UNL1        0.1067
     26 N         138.8346  139.1576  157.4807 N.1     1  UNL1       -0.1906
@<TRIPOS>BOND
     1    23    24    1
     2    24    17    1
     3    17    18   ar
     4    18    19   ar
     5    19    15    1
     6    15     1    1
     7     1     2    1
     8     1     3    1
     9     3     4    1
    10     4     5    2
    11     5     6   ar
    12     6     7   ar
    13     7     8    1
    14     7     9   ar
    15     9    10   ar
    16    10    11   ar
    17    11    12    2
    18    12    13    1
    19    13    14    2
    20    19    20   ar
    21    20    21   ar
    22    21    22   ar
    23    22    25    1
    24    25    26    3
    25    22    17   ar
    26    13     3    1
    27    11     5   ar
    28    15    16    1
@<TRIPOS>MOLECULE
*****
 26 28 0 0 0
SMALL
GASTEIGER

@<TRIPOS>ATOM
      1 C         138.6333  143.8792  164.2059 C.3     1  UNL1        0.0845
      2 C         138.2914  144.5775  165.4886 C.3     1  UNL1        0.0221
      3 C         139.0126  142.4280  164.2199 C.3     1  UNL1        0.1184
      4 C         140.2760  141.9896  164.8992 C.2     1  UNL1       -0.0143
      5 C         140.6553  140.5383  164.9132 C.ar    1  UNL1        0.0124
      6 C         141.9187  140.0999  165.5925 C.ar    1  UNL1        0.0124
      7 C         142.2980  138.6487  165.6066 C.ar    1  UNL1        0.0577
      8 CL        143.5614  138.2102  166.2859 Cl      1  UNL1       -0.0822
      9 C         141.4138  137.6360  164.9413 C.ar    1  UNL1        0.0127
     10 C         140.1503  138.0744  164.2620 C.ar    1  UNL1        0.0175
     11 C         139.7711  139.5256  164.2480 C.ar    1  UNL1        0.0731
     12 N         138.5076  139.9641  163.5687 N.am    1  UNL1       -0.1789
     13 C         138.1284  141.4152  163.5546 C.2     1  UNL1        0.2508
     14 O         136.8649  141.8537  162.8753 O.2     1  UNL1       -0.2726
     15 N         138.5958  144.6321  162.9090 N.pl3   1  UNL1       -0.3037
     16 H         137.9074  145.3196  162.7586 H       1  UNL1        0.1496
     17 C         142.0829  144.0721  161.0988 C.ar    1  UNL1        0.2387
     18 N         141.0713  144.3667  162.1665 N.ar    1  UNL1       -0.1783
     19 C         139.6073  144.3375  161.8413 C.ar    1  UNL1        0.2195
     20 N         139.1548  144.0136  160.4483 N.ar    1  UNL1       -0.2114
     21 C         140.1663  143.7190  159.3806 C.ar    1  UNL1        0.1168
     22 C         141.6304  143.7482  159.7058 C.ar    1  UNL1        0.1406
     23 C         143.9975  144.3595  162.8313 C.3     1  UNL1        0.2543
     24 O         143.5469  144.1014  161.4241 O.3     1  UNL1       -0.4556
     25 C         142.6418  143.4536  158.6381 C.1     1  UNL1        0.1067
     26 N         143.6533  143.1590  157.5704 N.1     1  UNL1       -0.1906
@<TRIPOS>BOND
     1    23    24    1
     2    24    17    1
     3    17    18   ar
     4    18    19   ar
     5    19    15    1
     6    15     1    1
     7     1     2    1
     8     1     3    1
     9     3     4    1
    10     4     5    2
    11     5     6   ar
    12     6     7   ar
    13     7     8    1
    14     7     9   ar
    15     9    10   ar
    16    10    11   ar
    17    11    12    2
    18    12    13    1
    19    13    14    2
    20    19    20   ar
    21    20    21   ar
    22    21    22   ar
    23    22    25    1
    24    25    26    3
    25    22    17   ar
    26    13     3    1
    27    11     5   ar
    28    15    16    1
@<TRIPOS>MOLECULE
*****
 26 28 0 0 0
SMALL
GASTEIGER

@<TRIPOS>ATOM
      1 C         140.1487  138.9329  164.7493 C.3     1  UNL1        0.0845
      2 C         139.1995  137.8093  165.0431 C.3     1  UNL1        0.0221
      3 C         140.8677  139.6203  165.8721 C.3     1  UNL1        0.1184
      4 C         140.2357  140.7938  166.5602 C.2     1  UNL1       -0.0143
      5 C         140.9546  141.4813  167.6830 C.ar    1  UNL1        0.0124
      6 C         140.3227  142.6548  168.3711 C.ar    1  UNL1        0.0124
      7 C         141.0416  143.3422  169.4938 C.ar    1  UNL1        0.0577
      8 CL        140.4097  144.5157  170.1820 Cl      1  UNL1       -0.0822
      9 C         142.3925  142.8561  169.9284 C.ar    1  UNL1        0.0127
     10 C         143.0244  141.6826  169.2403 C.ar    1  UNL1        0.0175
     11 C         142.3055  140.9952  168.1176 C.ar    1  UNL1        0.0731
     12 N         142.9375  139.8217  167.4294 N.am    1  UNL1       -0.1789
     13 C         142.2185  139.1343  166.3067 C.2     1  UNL1        0.2508
     14 O         142.8505  137.9607  165.6185 O.2     1  UNL1       -0.2726
     15 N         140.3791  139.3691  163.3327 N.pl3   1  UNL1       -0.3037
     16 H         140.6452  138.7098  162.6517 H       1  UNL1        0.1496
     17 C         141.2201  143.0718  162.1785 C.ar    1  UNL1        0.2387
     18 N         141.3951  141.6311  162.5576 N.ar    1  UNL1       -0.1783
     19 C         140.2041  140.8098  162.9537 C.ar    1  UNL1        0.2195
     20 N         138.8380  141.4292  162.9708 N.ar    1  UNL1       -0.2114
     21 C         138.6630  142.8699  162.5918 C.ar    1  UNL1        0.1168
     22 C         139.8540  143.6912  162.1956 C.ar    1  UNL1        0.1406
     23 C         143.3315  144.4359  162.8352 C.3     1  UNL1        0.2543
     24 O         142.4111  143.8931  161.7824 O.3     1  UNL1       -0.4556
     25 C         139.6790  145.1319  161.8166 C.1     1  UNL1        0.1067
     26 N         139.5040  146.5726  161.4376 N.1     1  UNL1       -0.1906
@<TRIPOS>BOND
     1    23    24    1
     2    24    17    1
     3    17    18   ar
     4    18    19   ar
     5    19    15    1
     6    15     1    1
     7     1     2    1
     8     1     3    1
     9     3     4    1
    10     4     5    2
    11     5     6   ar
    12     6     7   ar
    13     7     8    1
    14     7     9   ar
    15     9    10   ar
    16    10    11   ar
    17    11    12    2
    18    12    13    1
    19    13    14    2
    20    19    20   ar
    21    20    21   ar
    22    21    22   ar
    23    22    25    1
    24    25    26    3
    25    22    17   ar
    26    13     3    1
    27    11     5   ar
    28    15    16    1
@<TRIPOS>MOLECULE
*****
 26 28 0 0 0
SMALL
GASTEIGER

@<TRIPOS>ATOM
      1 C         141.4579  139.7934  166.8605 C.3     1  UNL1        0.0845
      2 C         141.5461  140.0482  168.3360 C.3     1  UNL1        0.0221
      3 C         140.4863  140.5701  166.0220 C.3     1  UNL1        0.1184
      4 C         140.9152  141.8509  165.3698 C.2     1  UNL1       -0.0143
      5 C         139.9436  142.6276  164.5313 C.ar    1  UNL1        0.0124
      6 C         140.3725  143.9084  163.8790 C.ar    1  UNL1        0.0124
      7 C         139.4009  144.6850  163.0406 C.ar    1  UNL1        0.0577
      8 CL        139.8298  145.9660  162.3883 Cl      1  UNL1       -0.0822
      9 C         138.0006  144.1807  162.8544 C.ar    1  UNL1        0.0127
     10 C         137.5717  142.8999  163.5066 C.ar    1  UNL1        0.0175
     11 C         138.5433  142.1233  164.3451 C.ar    1  UNL1        0.0731
     12 N         138.1144  140.8424  164.9973 N.am    1  UNL1       -0.1789
     13 C         139.0859  140.0658  165.8358 C.2     1  UNL1        0.2508
     14 O         138.6571  138.7849  166.4881 O.2     1  UNL1       -0.2726
     15 N         142.3411  138.7620  166.2233 N.pl3   1  UNL1       -0.3037
     16 H         142.7006  138.0208  166.7626 H       1  UNL1        0.1496
     17 C         144.0712  139.9133  162.8424 C.ar    1  UNL1        0.2387
     18 N         143.7356  139.8156  164.3011 N.ar    1  UNL1       -0.1783
     19 C         142.6767  138.8596  164.7647 C.ar    1  UNL1        0.2195
     20 N         141.9534  138.0014  163.7695 N.ar    1  UNL1       -0.2114
     21 C         142.2890  138.0991  162.3109 C.ar    1  UNL1        0.1168
     22 C         143.3479  139.0551  161.8472 C.ar    1  UNL1        0.1406
     23 C         145.7897  141.7916  163.3607 C.3     1  UNL1        0.2543
     24 O         145.1301  140.8692  162.3788 O.3     1  UNL1       -0.4556
     25 C         143.6835  139.1528  160.3886 C.1     1  UNL1        0.1067
     26 N         144.0191  139.2505  158.9299 N.1     1  UNL1       -0.1906
@<TRIPOS>BOND
     1    23    24    1
     2    24    17    1
     3    17    18   ar
     4    18    19   ar
     5    19    15    1
     6    15     1    1
     7     1     2    1
     8     1     3    1
     9     3     4    1
    10     4     5    2
    11     5     6   ar
    12     6     7   ar
    13     7     8    1
    14     7     9   ar
    15     9    10   ar
    16    10    11   ar
    17    11    12    2
    18    12    13    1
    19    13    14    2
    20    19    20   ar
    21    20    21   ar
    22    21    22   ar
    23    22    25    1
    24    25    26    3
    25    22    17   ar
    26    13     3    1
    27    11     5   ar
    28    15    16    1
