@<TRIPOS>MOLECULE
*****
 35 38 0 0 0
SMALL
GASTEIGER

@<TRIPOS>ATOM
      1 C         143.4187  143.2100  163.6593 C.3     1  UNL1        0.1751
      2 C         142.4215  143.9774  162.8427 C.ar    1  UNL1        0.0089
      3 C         141.2190  144.7869  163.2282 C.ar    1  UNL1       -0.0021
      4 C         140.3935  145.4547  162.1687 C.ar    1  UNL1       -0.0003
      5 C         140.7704  145.3129  160.7238 C.ar    1  UNL1        0.0001
      6 C         141.9729  144.5033  160.3383 C.ar    1  UNL1        0.0043
      7 C         142.7985  143.8356  161.3978 C.ar    1  UNL1        0.0516
      8 C         144.0286  142.9806  161.3214 C.2     1  UNL1        0.2493
      9 O         144.7489  142.5822  160.0675 O.2     1  UNL1       -0.2699
     10 N         144.4119  142.5940  162.7191 N.am    1  UNL1       -0.2657
     11 O         144.4758  143.7761  165.9641 O.2     1  UNL1       -0.2729
     12 C         143.4220  143.0813  165.1538 C.2     1  UNL1        0.2451
     13 N         142.3714  142.2577  165.8380 N.am    1  UNL1       -0.2988
     14 H         141.6797  141.8016  165.3062 H       1  UNL1        0.1498
     15 C         142.3747  142.1290  167.3325 C.3     1  UNL1        0.1165
     16 C         141.2255  141.4641  168.0305 C.ar    1  UNL1        0.0004
     17 C         140.9791  141.7266  169.4866 C.ar    1  UNL1       -0.0024
     18 C         139.8298  141.0617  170.1845 C.ar    1  UNL1        0.0028
     19 C         138.9269  140.1343  169.4263 C.ar    1  UNL1        0.0372
     20 C         139.1734  139.8718  167.9702 C.ar    1  UNL1        0.1465
     21 C         140.3227  140.5367  167.2722 C.ar    1  UNL1        0.0346
     22 O         138.2706  138.9444  167.2120 O.3     1  UNL1       -0.4045
     23 C         138.4034  138.8195  165.7231 C.3     1  UNL1        0.5753
     24 F         138.5363  138.6944  164.2343 F       1  UNL1       -0.1328
     25 F         139.0759  137.4896  165.8948 F       1  UNL1       -0.1328
     26 F         137.7309  140.1492  165.5514 F       1  UNL1       -0.1328
     27 C         145.5828  141.7410  163.1083 C.3     1  UNL1        0.1024
     28 C         145.3821  140.5557  164.0053 C.3     1  UNL1        0.0872
     29 C         144.2101  139.6440  163.7924 C.ar    1  UNL1        0.1411
     30 N         143.2575  139.3717  164.9187 N.ar    1  UNL1       -0.2267
     31 C         142.0855  138.4600  164.7059 C.ar    1  UNL1        0.1314
     32 C         141.8661  137.8207  163.3668 C.ar    1  UNL1        0.1783
     33 F         140.6941  136.9090  163.1539 F       1  UNL1       -0.2009
     34 C         142.8187  138.0930  162.2406 C.ar    1  UNL1        0.1314
     35 N         143.9907  139.0047  162.4534 N.ar    1  UNL1       -0.2267
@<TRIPOS>BOND
     1    11    12    2
     2    12    13   am
     3    13    15    1
     4    15    16    1
     5    16    17   ar
     6    17    18   ar
     7    18    19   ar
     8    19    20   ar
     9    20    22    1
    10    22    23    1
    11    23    24    1
    12    23    25    1
    13    23    26    1
    14    20    21   ar
    15    12     1    1
    16     1     2    1
    17     2     3   ar
    18     3     4   ar
    19     4     5   ar
    20     5     6   ar
    21     6     7   ar
    22     7     8    1
    23     8     9    2
    24     8    10   am
    25    10    27    1
    26    27    28    1
    27    28    29    1
    28    29    30   ar
    29    30    31   ar
    30    31    32   ar
    31    32    33    1
    32    32    34   ar
    33    34    35   ar
    34    21    16   ar
    35    10     1    1
    36    35    29   ar
    37     7     2   ar
    38    13    14    1
@<TRIPOS>MOLECULE
*****
 35 38 0 0 0
SMALL
GASTEIGER

@<TRIPOS>ATOM
      1 C         142.1857  144.1486  161.5511 C.3     1  UNL1        0.1751
      2 C         141.9928  144.2358  160.0661 C.ar    1  UNL1        0.0089
      3 C         142.7432  143.6266  158.9191 C.ar    1  UNL1       -0.0021
      4 C         142.3085  143.8987  157.5095 C.ar    1  UNL1       -0.0003
      5 C         141.1233  144.7798  157.2470 C.ar    1  UNL1        0.0001
      6 C         140.3728  145.3889  158.3940 C.ar    1  UNL1        0.0043
      7 C         140.8076  145.1169  159.8036 C.ar    1  UNL1        0.0516
      8 C         140.2680  145.5742  161.1264 C.2     1  UNL1        0.2493
      9 O         139.0845  146.4724  161.3328 O.2     1  UNL1       -0.2699
     10 N         141.1197  144.9758  162.2064 N.am    1  UNL1       -0.2657
     11 O         144.6842  143.8250  162.1853 O.2     1  UNL1       -0.2729
     12 C         143.2566  143.3707  162.2569 C.2     1  UNL1        0.2451
     13 N         142.8997  142.1385  163.0344 N.am    1  UNL1       -0.2988
     14 H         141.9626  141.8403  163.0814 H       1  UNL1        0.1498
     15 C         143.9706  141.3606  163.7402 C.3     1  UNL1        0.1165
     16 C         143.6259  140.5283  164.9395 C.ar    1  UNL1        0.0004
     17 C         144.1120  139.1124  165.0346 C.ar    1  UNL1       -0.0024
     18 C         143.7673  138.2802  166.2340 C.ar    1  UNL1        0.0028
     19 C         142.9366  138.8637  167.3383 C.ar    1  UNL1        0.0372
     20 C         142.4506  140.2796  167.2432 C.ar    1  UNL1        0.1465
     21 C         142.7952  141.1119  166.0437 C.ar    1  UNL1        0.0346
     22 O         141.6199  140.8632  168.3474 O.3     1  UNL1       -0.4045
     23 C         140.2191  140.3753  168.5702 C.3     1  UNL1        0.5753
     24 F         138.8183  139.8873  168.7930 F       1  UNL1       -0.1328
     25 F         140.6936  139.5385  169.7212 F       1  UNL1       -0.1328
     26 F         139.7445  141.2120  167.4192 F       1  UNL1       -0.1328
     27 C         140.9374  145.1704  163.6825 C.3     1  UNL1        0.1024
     28 C         139.7398  144.5888  164.3735 C.3     1  UNL1        0.0872
     29 C         139.2242  143.2388  163.9714 C.ar    1  UNL1        0.1411
     30 N         140.1089  142.0330  164.0873 N.ar    1  UNL1       -0.2267
     31 C         139.5932  140.6830  163.6853 C.ar    1  UNL1        0.1314
     32 C         138.1928  140.5388  163.1674 C.ar    1  UNL1        0.1783
     33 F         137.6771  139.1889  162.7654 F       1  UNL1       -0.2009
     34 C         137.3081  141.7446  163.0516 C.ar    1  UNL1        0.1314
     35 N         137.8238  143.0946  163.4536 N.ar    1  UNL1       -0.2267
@<TRIPOS>BOND
     1    11    12    2
     2    12    13   am
     3    13    15    1
     4    15    16    1
     5    16    17   ar
     6    17    18   ar
     7    18    19   ar
     8    19    20   ar
     9    20    22    1
    10    22    23    1
    11    23    24    1
    12    23    25    1
    13    23    26    1
    14    20    21   ar
    15    12     1    1
    16     1     2    1
    17     2     3   ar
    18     3     4   ar
    19     4     5   ar
    20     5     6   ar
    21     6     7   ar
    22     7     8    1
    23     8     9    2
    24     8    10   am
    25    10    27    1
    26    27    28    1
    27    28    29    1
    28    29    30   ar
    29    30    31   ar
    30    31    32   ar
    31    32    33    1
    32    32    34   ar
    33    34    35   ar
    34    21    16   ar
    35    10     1    1
    36    35    29   ar
    37     7     2   ar
    38    13    14    1
@<TRIPOS>MOLECULE
*****
 35 38 0 0 0
SMALL
GASTEIGER

@<TRIPOS>ATOM
      1 C         141.0633  141.2206  166.6388 C.3     1  UNL1        0.1751
      2 C         141.7490  141.3783  167.9636 C.ar    1  UNL1        0.0089
      3 C         143.0590  141.9997  168.3480 C.ar    1  UNL1       -0.0021
      4 C         143.4915  142.0096  169.7843 C.ar    1  UNL1       -0.0003
      5 C         142.6141  141.3981  170.8360 C.ar    1  UNL1        0.0001
      6 C         141.3041  140.7768  170.4516 C.ar    1  UNL1        0.0043
      7 C         140.8716  140.7669  169.0154 C.ar    1  UNL1        0.0516
      8 C         139.6436  140.2313  168.3406 C.2     1  UNL1        0.2493
      9 O         138.4982  139.5372  169.0161 O.2     1  UNL1       -0.2699
     10 N         139.7621  140.5118  166.8718 N.am    1  UNL1       -0.2657
     11 O         141.8334  143.1503  165.0790 O.2     1  UNL1       -0.2729
     12 C         141.5869  141.6895  165.3137 C.2     1  UNL1        0.2451
     13 N         141.8641  140.6975  164.2232 N.am    1  UNL1       -0.2988
     14 H         141.7024  139.7386  164.3772 H       1  UNL1        0.1498
     15 C         142.3878  141.1664  162.8981 C.3     1  UNL1        0.1165
     16 C         141.4336  141.6091  161.8288 C.ar    1  UNL1        0.0004
     17 C         141.7651  141.3766  160.3845 C.ar    1  UNL1       -0.0024
     18 C         140.8108  141.8194  159.3153 C.ar    1  UNL1        0.0028
     19 C         139.5249  142.4947  159.6903 C.ar    1  UNL1        0.0372
     20 C         139.1934  142.7272  161.1346 C.ar    1  UNL1        0.1465
     21 C         140.1478  142.2844  162.2039 C.ar    1  UNL1        0.0346
     22 O         137.9076  143.4026  161.5097 O.3     1  UNL1       -0.4045
     23 C         137.6589  143.8040  162.9334 C.3     1  UNL1        0.5753
     24 F         137.4102  144.2053  164.3571 F       1  UNL1       -0.1328
     25 F         137.0662  142.4541  163.2103 F       1  UNL1       -0.1328
     26 F         138.2516  145.1538  162.6564 F       1  UNL1       -0.1328
     27 C         138.7560  140.1473  165.8207 C.3     1  UNL1        0.1024
     28 C         138.8349  138.8145  165.1371 C.3     1  UNL1        0.0872
     29 C         139.0037  138.7440  163.6483 C.ar    1  UNL1        0.1411
     30 N         140.2370  138.1232  163.0619 N.ar    1  UNL1       -0.2267
     31 C         140.4058  138.0527  161.5731 C.ar    1  UNL1        0.1314
     32 C         139.3414  138.6030  160.6707 C.ar    1  UNL1        0.1783
     33 F         139.5102  138.5325  159.1819 F       1  UNL1       -0.2009
     34 C         138.1082  139.2237  161.2571 C.ar    1  UNL1        0.1314
     35 N         137.9394  139.2942  162.7459 N.ar    1  UNL1       -0.2267
@<TRIPOS>BOND
     1    11    12    2
     2    12    13   am
     3    13    15    1
     4    15    16    1
     5    16    17   ar
     6    17    18   ar
     7    18    19   ar
     8    19    20   ar
     9    20    22    1
    10    22    23    1
    11    23    24    1
    12    23    25    1
    13    23    26    1
    14    20    21   ar
    15    12     1    1
    16     1     2    1
    17     2     3   ar
    18     3     4   ar
    19     4     5   ar
    20     5     6   ar
    21     6     7   ar
    22     7     8    1
    23     8     9    2
    24     8    10   am
    25    10    27    1
    26    27    28    1
    27    28    29    1
    28    29    30   ar
    29    30    31   ar
    30    31    32   ar
    31    32    33    1
    32    32    34   ar
    33    34    35   ar
    34    21    16   ar
    35    10     1    1
    36    35    29   ar
    37     7     2   ar
    38    13    14    1
@<TRIPOS>MOLECULE
*****
 35 38 0 0 0
SMALL
GASTEIGER

@<TRIPOS>ATOM
      1 C         141.5652  140.6673  166.8839 C.3     1  UNL1        0.1751
      2 C         141.9461  141.2804  168.1989 C.ar    1  UNL1        0.0089
      3 C         143.1444  142.0748  168.6263 C.ar    1  UNL1       -0.0021
      4 C         143.2529  142.5670  170.0390 C.ar    1  UNL1       -0.0003
      5 C         142.1630  142.2648  171.0243 C.ar    1  UNL1        0.0001
      6 C         140.9647  141.4704  170.5969 C.ar    1  UNL1        0.0043
      7 C         140.8562  140.9782  169.1842 C.ar    1  UNL1        0.0516
      8 C         139.8018  140.1783  168.4782 C.2     1  UNL1        0.2493
      9 O         138.5321  139.6614  169.0870 O.2     1  UNL1       -0.2699
     10 N         140.2400  139.9861  167.0565 N.am    1  UNL1       -0.2657
     11 O         143.5990  139.8799  165.4719 O.2     1  UNL1       -0.2729
     12 C         142.3686  140.7251  165.6185 C.2     1  UNL1        0.2451
     13 N         141.9415  141.6284  164.4996 N.am    1  UNL1       -0.2988
     14 H         141.1339  142.1832  164.5957 H       1  UNL1        0.1498
     15 C         142.7449  141.6862  163.2342 C.3     1  UNL1        0.1165
     16 C         142.7754  140.5047  162.3106 C.ar    1  UNL1        0.0004
     17 C         144.0499  140.1298  161.6141 C.ar    1  UNL1       -0.0024
     18 C         144.0802  138.9483  160.6905 C.ar    1  UNL1        0.0028
     19 C         142.8361  138.1416  160.4633 C.ar    1  UNL1        0.0372
     20 C         141.5616  138.5166  161.1597 C.ar    1  UNL1        0.1465
     21 C         141.5312  139.6981  162.0834 C.ar    1  UNL1        0.0346
     22 O         140.3175  137.7100  160.9326 O.3     1  UNL1       -0.4045
     23 C         139.0707  138.0205  161.7066 C.3     1  UNL1        0.5753
     24 F         137.8240  138.3310  162.4806 F       1  UNL1       -0.1328
     25 F         139.5794  137.2001  162.8549 F       1  UNL1       -0.1328
     26 F         138.5622  138.8408  160.5584 F       1  UNL1       -0.1328
     27 C         139.4854  139.2433  165.9941 C.3     1  UNL1        0.1024
     28 C         138.2233  139.8221  165.4268 C.3     1  UNL1        0.0872
     29 C         138.2570  141.1426  164.7161 C.ar    1  UNL1        0.1411
     30 N         138.9064  142.3281  165.3666 N.ar    1  UNL1       -0.2267
     31 C         138.9401  143.6486  164.6558 C.ar    1  UNL1        0.1314
     32 C         138.3244  143.7836  163.2946 C.ar    1  UNL1        0.1783
     33 F         138.3581  145.1041  162.5839 F       1  UNL1       -0.2009
     34 C         137.6750  142.5982  162.6443 C.ar    1  UNL1        0.1314
     35 N         137.6413  141.2777  163.3550 N.ar    1  UNL1       -0.2267
@<TRIPOS>BOND
     1    11    12    2
     2    12    13   am
     3    13    15    1
     4    15    16    1
     5    16    17   ar
     6    17    18   ar
     7    18    19   ar
     8    19    20   ar
     9    20    22    1
    10    22    23    1
    11    23    24    1
    12    23    25    1
    13    23    26    1
    14    20    21   ar
    15    12     1    1
    16     1     2    1
    17     2     3   ar
    18     3     4   ar
    19     4     5   ar
    20     5     6   ar
    21     6     7   ar
    22     7     8    1
    23     8     9    2
    24     8    10   am
    25    10    27    1
    26    27    28    1
    27    28    29    1
    28    29    30   ar
    29    30    31   ar
    30    31    32   ar
    31    32    33    1
    32    32    34   ar
    33    34    35   ar
    34    21    16   ar
    35    10     1    1
    36    35    29   ar
    37     7     2   ar
    38    13    14    1
@<TRIPOS>MOLECULE
*****
 35 38 0 0 0
SMALL
GASTEIGER

@<TRIPOS>ATOM
      1 C         138.8318  142.6575  160.8846 C.3     1  UNL1        0.1751
      2 C         139.4259  143.2606  159.6463 C.ar    1  UNL1        0.0089
      3 C         140.1543  144.5500  159.4079 C.ar    1  UNL1       -0.0021
      4 C         140.6428  144.8920  158.0316 C.ar    1  UNL1       -0.0003
      5 C         140.4030  143.9445  156.8936 C.ar    1  UNL1        0.0001
      6 C         139.6746  142.6551  157.1321 C.ar    1  UNL1        0.0043
      7 C         139.1861  142.3132  158.5084 C.ar    1  UNL1        0.0516
      8 C         138.4438  141.1246  159.0435 C.2     1  UNL1        0.2493
      9 O         137.9986  139.9325  158.2493 O.2     1  UNL1       -0.2699
     10 N         138.2248  141.3374  160.5120 N.am    1  UNL1       -0.2657
     11 O         138.0140  144.4845  162.5408 O.2     1  UNL1       -0.2729
     12 C         138.8428  143.2675  162.2549 C.2     1  UNL1        0.2451
     13 N         139.6828  142.6604  163.3395 N.am    1  UNL1       -0.2988
     14 H         140.2268  141.8617  163.1518 H       1  UNL1        0.1498
     15 C         139.6938  143.2705  164.7098 C.3     1  UNL1        0.1165
     16 C         140.7476  142.8715  165.6998 C.ar    1  UNL1        0.0004
     17 C         142.1928  142.8725  165.2983 C.ar    1  UNL1       -0.0024
     18 C         143.2466  142.4735  166.2884 C.ar    1  UNL1        0.0028
     19 C         142.8552  142.0734  167.6801 C.ar    1  UNL1        0.0372
     20 C         141.4100  142.0724  168.0816 C.ar    1  UNL1        0.1465
     21 C         140.3561  142.4714  167.0915 C.ar    1  UNL1        0.0346
     22 O         141.0185  141.6724  169.4733 O.3     1  UNL1       -0.4045
     23 C         139.6801  141.0434  169.7243 C.3     1  UNL1        0.5753
     24 F         138.3417  140.4144  169.9754 F       1  UNL1       -0.1328
     25 F         139.2189  142.2971  170.4066 F       1  UNL1       -0.1328
     26 F         140.1413  139.7897  169.0420 F       1  UNL1       -0.1328
     27 C         137.5223  140.3955  161.4443 C.3     1  UNL1        0.1024
     28 C         138.1953  139.1264  161.8760 C.3     1  UNL1        0.0872
     29 C         139.1168  139.1311  163.0595 C.ar    1  UNL1        0.1411
     30 N         140.5550  139.5216  162.8886 N.ar    1  UNL1       -0.2267
     31 C         141.4766  139.5264  164.0721 C.ar    1  UNL1        0.1314
     32 C         140.9599  139.1407  165.4266 C.ar    1  UNL1        0.1783
     33 F         141.8815  139.1455  166.6101 F       1  UNL1       -0.2009
     34 C         139.5218  138.7502  165.5974 C.ar    1  UNL1        0.1314
     35 N         138.6002  138.7455  164.4139 N.ar    1  UNL1       -0.2267
@<TRIPOS>BOND
     1    11    12    2
     2    12    13   am
     3    13    15    1
     4    15    16    1
     5    16    17   ar
     6    17    18   ar
     7    18    19   ar
     8    19    20   ar
     9    20    22    1
    10    22    23    1
    11    23    24    1
    12    23    25    1
    13    23    26    1
    14    20    21   ar
    15    12     1    1
    16     1     2    1
    17     2     3   ar
    18     3     4   ar
    19     4     5   ar
    20     5     6   ar
    21     6     7   ar
    22     7     8    1
    23     8     9    2
    24     8    10   am
    25    10    27    1
    26    27    28    1
    27    28    29    1
    28    29    30   ar
    29    30    31   ar
    30    31    32   ar
    31    32    33    1
    32    32    34   ar
    33    34    35   ar
    34    21    16   ar
    35    10     1    1
    36    35    29   ar
    37     7     2   ar
    38    13    14    1
@<TRIPOS>MOLECULE
*****
 35 38 0 0 0
SMALL
GASTEIGER

@<TRIPOS>ATOM
      1 C         140.9620  139.0688  162.9735 C.3     1  UNL1        0.1751
      2 C         141.1798  139.0853  161.4895 C.ar    1  UNL1        0.0089
      3 C         142.3818  139.4151  160.6550 C.ar    1  UNL1       -0.0021
      4 C         142.2993  139.3420  159.1591 C.ar    1  UNL1       -0.0003
      5 C         141.0146  138.9393  158.4977 C.ar    1  UNL1        0.0001
      6 C         139.8126  138.6095  159.3321 C.ar    1  UNL1        0.0043
      7 C         139.8952  138.6826  160.8280 C.ar    1  UNL1        0.0516
      8 C         138.8835  138.4172  161.9032 C.2     1  UNL1        0.2493
      9 O         137.4621  137.9883  161.6899 O.2     1  UNL1       -0.2699
     10 N         139.5429  138.6559  163.2292 N.am    1  UNL1       -0.2657
     11 O         143.1365  138.4788  164.2672 O.2     1  UNL1       -0.2729
     12 C         141.9841  139.4061  164.0183 C.2     1  UNL1        0.2451
     13 N         141.8536  140.6708  164.8145 N.am    1  UNL1       -0.2988
     14 H         141.0972  141.2794  164.6512 H       1  UNL1        0.1498
     15 C         142.8757  141.0080  165.8593 C.3     1  UNL1        0.1165
     16 C         142.6472  140.6109  167.2876 C.ar    1  UNL1        0.0004
     17 C         142.8932  139.1962  167.7213 C.ar    1  UNL1       -0.0024
     18 C         142.6646  138.7991  169.1496 C.ar    1  UNL1        0.0028
     19 C         142.1901  139.8167  170.1443 C.ar    1  UNL1        0.0372
     20 C         141.9442  141.2314  169.7106 C.ar    1  UNL1        0.1465
     21 C         142.1727  141.6285  168.2822 C.ar    1  UNL1        0.0346
     22 O         141.4697  142.2490  170.7053 O.3     1  UNL1       -0.4045
     23 C         140.7763  143.4925  170.2332 C.3     1  UNL1        0.5753
     24 F         140.0829  144.7360  169.7611 F       1  UNL1       -0.1328
     25 F         139.5080  142.7138  170.0452 F       1  UNL1       -0.1328
     26 F         142.0446  144.2711  170.4211 F       1  UNL1       -0.1328
     27 C         138.8965  138.5077  164.5747 C.3     1  UNL1        0.1024
     28 C         138.1455  139.6581  165.1768 C.3     1  UNL1        0.0872
     29 C         138.2844  141.0325  164.5924 C.ar    1  UNL1        0.1411
     30 N         137.4808  141.4194  163.3863 N.ar    1  UNL1       -0.2267
     31 C         137.6197  142.7939  162.8019 C.ar    1  UNL1        0.1314
     32 C         138.5622  143.7815  163.4235 C.ar    1  UNL1        0.1783
     33 F         138.7011  145.1559  162.8391 F       1  UNL1       -0.2009
     34 C         139.3658  143.3946  164.6296 C.ar    1  UNL1        0.1314
     35 N         139.2269  142.0201  165.2140 N.ar    1  UNL1       -0.2267
@<TRIPOS>BOND
     1    11    12    2
     2    12    13   am
     3    13    15    1
     4    15    16    1
     5    16    17   ar
     6    17    18   ar
     7    18    19   ar
     8    19    20   ar
     9    20    22    1
    10    22    23    1
    11    23    24    1
    12    23    25    1
    13    23    26    1
    14    20    21   ar
    15    12     1    1
    16     1     2    1
    17     2     3   ar
    18     3     4   ar
    19     4     5   ar
    20     5     6   ar
    21     6     7   ar
    22     7     8    1
    23     8     9    2
    24     8    10   am
    25    10    27    1
    26    27    28    1
    27    28    29    1
    28    29    30   ar
    29    30    31   ar
    30    31    32   ar
    31    32    33    1
    32    32    34   ar
    33    34    35   ar
    34    21    16   ar
    35    10     1    1
    36    35    29   ar
    37     7     2   ar
    38    13    14    1
@<TRIPOS>MOLECULE
*****
 35 38 0 0 0
SMALL
GASTEIGER

@<TRIPOS>ATOM
      1 C         139.0162  142.7376  162.3774 C.3     1  UNL1        0.1751
      2 C         138.7864  142.1569  161.0135 C.ar    1  UNL1        0.0089
      3 C         138.2406  140.8337  160.5650 C.ar    1  UNL1       -0.0021
      4 C         138.1256  140.5273  159.1012 C.ar    1  UNL1       -0.0003
      5 C         138.5562  141.5440  158.0859 C.ar    1  UNL1        0.0001
      6 C         139.1020  142.8672  158.5345 C.ar    1  UNL1        0.0043
      7 C         139.2171  143.1737  159.9983 C.ar    1  UNL1        0.0516
      8 C         139.7130  144.3827  160.7347 C.2     1  UNL1        0.2493
      9 O         140.2405  145.6404  160.1103 O.2     1  UNL1       -0.2699
     10 N         139.5889  144.1132  162.2050 N.am    1  UNL1       -0.2657
     11 O         137.5986  142.5497  164.5465 O.2     1  UNL1       -0.2729
     12 C         138.7245  142.0614  163.6841 C.2     1  UNL1        0.2451
     13 N         139.5588  140.8966  164.1285 N.am    1  UNL1       -0.2988
     14 H         140.2979  140.5760  163.5626 H       1  UNL1        0.1498
     15 C         139.2671  140.2204  165.4353 C.3     1  UNL1        0.1165
     16 C         140.2952  140.2242  166.5276 C.ar    1  UNL1        0.0004
     17 C         141.5785  139.4675  166.3524 C.ar    1  UNL1       -0.0024
     18 C         142.6065  139.4713  167.4447 C.ar    1  UNL1        0.0028
     19 C         142.3513  140.2318  168.7122 C.ar    1  UNL1        0.0372
     20 C         141.0680  140.9885  168.8874 C.ar    1  UNL1        0.1465
     21 C         140.0399  140.9847  167.7950 C.ar    1  UNL1        0.0346
     22 O         140.8128  141.7490  170.1549 O.3     1  UNL1       -0.4045
     23 C         140.6098  143.2345  170.1102 C.3     1  UNL1        0.5753
     24 F         140.4070  144.7200  170.0654 F       1  UNL1       -0.1328
     25 F         141.9203  143.3920  169.3973 F       1  UNL1       -0.1328
     26 F         139.2994  143.0770  170.8230 F       1  UNL1       -0.1328
     27 C         139.9704  145.0541  163.3092 C.3     1  UNL1        0.1024
     28 C         141.3990  145.1443  163.7576 C.3     1  UNL1        0.0872
     29 C         142.3672  144.0557  163.4006 C.ar    1  UNL1        0.1411
     30 N         143.4168  144.2981  162.3566 N.ar    1  UNL1       -0.2267
     31 C         144.3850  143.2095  161.9997 C.ar    1  UNL1        0.1314
     32 C         144.3038  141.8785  162.6867 C.ar    1  UNL1        0.1783
     33 F         145.2720  140.7899  162.3297 F       1  UNL1       -0.2009
     34 C         143.2543  141.6361  163.7306 C.ar    1  UNL1        0.1314
     35 N         142.2860  142.7247  164.0876 N.ar    1  UNL1       -0.2267
@<TRIPOS>BOND
     1    11    12    2
     2    12    13   am
     3    13    15    1
     4    15    16    1
     5    16    17   ar
     6    17    18   ar
     7    18    19   ar
     8    19    20   ar
     9    20    22    1
    10    22    23    1
    11    23    24    1
    12    23    25    1
    13    23    26    1
    14    20    21   ar
    15    12     1    1
    16     1     2    1
    17     2     3   ar
    18     3     4   ar
    19     4     5   ar
    20     5     6   ar
    21     6     7   ar
    22     7     8    1
    23     8     9    2
    24     8    10   am
    25    10    27    1
    26    27    28    1
    27    28    29    1
    28    29    30   ar
    29    30    31   ar
    30    31    32   ar
    31    32    33    1
    32    32    34   ar
    33    34    35   ar
    34    21    16   ar
    35    10     1    1
    36    35    29   ar
    37     7     2   ar
    38    13    14    1
@<TRIPOS>MOLECULE
*****
 35 38 0 0 0
SMALL
GASTEIGER

@<TRIPOS>ATOM
      1 C         141.4200  140.0586  167.1941 C.3     1  UNL1        0.1751
      2 C         141.9507  140.9484  168.2788 C.ar    1  UNL1        0.0089
      3 C         143.2713  141.6373  168.4555 C.ar    1  UNL1       -0.0021
      4 C         143.5202  142.4814  169.6702 C.ar    1  UNL1       -0.0003
      5 C         142.4485  142.6367  170.7081 C.ar    1  UNL1        0.0001
      6 C         141.1278  141.9478  170.5314 C.ar    1  UNL1        0.0043
      7 C         140.8789  141.1036  169.3167 C.ar    1  UNL1        0.0516
      8 C         139.6859  140.3098  168.8734 C.2     1  UNL1        0.2493
      9 O         138.3866  140.1839  169.6123 O.2     1  UNL1       -0.2699
     10 N         140.0203  139.6639  167.5615 N.am    1  UNL1       -0.2657
     11 O         143.4066  138.8127  166.0756 O.2     1  UNL1       -0.2729
     12 C         142.1592  139.6374  165.9587 C.2     1  UNL1        0.2451
     13 N         141.6510  140.0411  164.6063 N.am    1  UNL1       -0.2988
     14 H         140.8323  140.5824  164.5295 H       1  UNL1        0.1498
     15 C         142.3903  139.6199  163.3709 C.3     1  UNL1        0.1165
     16 C         142.9627  140.6560  162.4497 C.ar    1  UNL1        0.0004
     17 C         143.2900  140.2989  161.0301 C.ar    1  UNL1       -0.0024
     18 C         143.8624  141.3351  160.1089 C.ar    1  UNL1        0.0028
     19 C         144.1076  142.7285  160.6072 C.ar    1  UNL1        0.0372
     20 C         143.7803  143.0857  162.0269 C.ar    1  UNL1        0.1465
     21 C         143.2079  142.0494  162.9481 C.ar    1  UNL1        0.0346
     22 O         144.0255  144.4790  162.5253 O.3     1  UNL1       -0.4045
     23 C         142.9795  145.1783  163.3419 C.3     1  UNL1        0.5753
     24 F         141.9336  145.8775  164.1586 F       1  UNL1       -0.1328
     25 F         143.9785  145.3889  164.4410 F       1  UNL1       -0.1328
     26 F         141.9806  144.9676  162.2430 F       1  UNL1       -0.1328
     27 C         139.1141  138.7788  166.7582 C.3     1  UNL1        0.1024
     28 C         138.0929  139.3849  165.8418 C.3     1  UNL1        0.0872
     29 C         138.5270  140.3021  164.7372 C.ar    1  UNL1        0.1411
     30 N         138.5937  139.7976  163.3261 N.ar    1  UNL1       -0.2267
     31 C         139.0278  140.7149  162.2214 C.ar    1  UNL1        0.1314
     32 C         139.3952  142.1366  162.5279 C.ar    1  UNL1        0.1783
     33 F         139.8292  143.0538  161.4232 F       1  UNL1       -0.2009
     34 C         139.3284  142.6410  163.9389 C.ar    1  UNL1        0.1314
     35 N         138.8944  141.7238  165.0436 N.ar    1  UNL1       -0.2267
@<TRIPOS>BOND
     1    11    12    2
     2    12    13   am
     3    13    15    1
     4    15    16    1
     5    16    17   ar
     6    17    18   ar
     7    18    19   ar
     8    19    20   ar
     9    20    22    1
    10    22    23    1
    11    23    24    1
    12    23    25    1
    13    23    26    1
    14    20    21   ar
    15    12     1    1
    16     1     2    1
    17     2     3   ar
    18     3     4   ar
    19     4     5   ar
    20     5     6   ar
    21     6     7   ar
    22     7     8    1
    23     8     9    2
    24     8    10   am
    25    10    27    1
    26    27    28    1
    27    28    29    1
    28    29    30   ar
    29    30    31   ar
    30    31    32   ar
    31    32    33    1
    32    32    34   ar
    33    34    35   ar
    34    21    16   ar
    35    10     1    1
    36    35    29   ar
    37     7     2   ar
    38    13    14    1
@<TRIPOS>MOLECULE
*****
 35 38 0 0 0
SMALL
GASTEIGER

@<TRIPOS>ATOM
      1 C         138.7631  141.7072  162.3285 C.3     1  UNL1        0.1751
      2 C         139.4320  142.9304  161.7748 C.ar    1  UNL1        0.0089
      3 C         140.0820  144.1071  162.4404 C.ar    1  UNL1       -0.0021
      4 C         140.6795  145.2033  161.6090 C.ar    1  UNL1       -0.0003
      5 C         140.6270  145.1229  160.1121 C.ar    1  UNL1        0.0001
      6 C         139.9770  143.9463  159.4465 C.ar    1  UNL1        0.0043
      7 C         139.3794  142.8500  160.2779 C.ar    1  UNL1        0.0516
      8 C         138.6782  141.5772  159.9064 C.2     1  UNL1        0.2493
      9 O         138.4057  141.0952  158.5123 O.2     1  UNL1       -0.2699
     10 N         138.2973  140.8709  161.1737 N.am    1  UNL1       -0.2657
     11 O         137.7630  142.2696  164.6594 O.2     1  UNL1       -0.2729
     12 C         138.5905  141.3782  163.7817 C.2     1  UNL1        0.2451
     13 N         139.2455  140.1576  164.3573 N.am    1  UNL1       -0.2988
     14 H         139.7887  139.5725  163.7813 H       1  UNL1        0.1498
     15 C         139.0729  139.8286  165.8106 C.3     1  UNL1        0.1165
     16 C         140.2278  139.9788  166.7558 C.ar    1  UNL1        0.0004
     17 C         141.5479  139.3431  166.4342 C.ar    1  UNL1       -0.0024
     18 C         142.7028  139.4934  167.3795 C.ar    1  UNL1        0.0028
     19 C         142.5377  140.2793  168.6465 C.ar    1  UNL1        0.0372
     20 C         141.2177  140.9150  168.9681 C.ar    1  UNL1        0.1465
     21 C         140.0627  140.7647  168.0227 C.ar    1  UNL1        0.0346
     22 O         141.0526  141.7009  170.2350 O.3     1  UNL1       -0.4045
     23 C         140.6583  143.1469  170.1745 C.3     1  UNL1        0.5753
     24 F         140.2642  144.5929  170.1139 F       1  UNL1       -0.1328
     25 F         142.0561  143.5110  169.7695 F       1  UNL1       -0.1328
     26 F         139.2607  142.7829  170.5794 F       1  UNL1       -0.1328
     27 C         137.5770  139.5586  161.2695 C.3     1  UNL1        0.1024
     28 C         138.3220  138.2761  161.0462 C.3     1  UNL1        0.0872
     29 C         139.7952  138.2070  161.3201 C.ar    1  UNL1        0.1411
     30 N         140.7762  138.5335  160.2333 N.ar    1  UNL1       -0.2267
     31 C         142.2494  138.4645  160.5072 C.ar    1  UNL1        0.1314
     32 C         142.7415  138.0688  161.8679 C.ar    1  UNL1        0.1783
     33 F         144.2147  137.9998  162.1418 F       1  UNL1       -0.2009
     34 C         141.7605  137.7423  162.9546 C.ar    1  UNL1        0.1314
     35 N         140.2873  137.8114  162.6807 N.ar    1  UNL1       -0.2267
@<TRIPOS>BOND
     1    11    12    2
     2    12    13   am
     3    13    15    1
     4    15    16    1
     5    16    17   ar
     6    17    18   ar
     7    18    19   ar
     8    19    20   ar
     9    20    22    1
    10    22    23    1
    11    23    24    1
    12    23    25    1
    13    23    26    1
    14    20    21   ar
    15    12     1    1
    16     1     2    1
    17     2     3   ar
    18     3     4   ar
    19     4     5   ar
    20     5     6   ar
    21     6     7   ar
    22     7     8    1
    23     8     9    2
    24     8    10   am
    25    10    27    1
    26    27    28    1
    27    28    29    1
    28    29    30   ar
    29    30    31   ar
    30    31    32   ar
    31    32    33    1
    32    32    34   ar
    33    34    35   ar
    34    21    16   ar
    35    10     1    1
    36    35    29   ar
    37     7     2   ar
    38    13    14    1
