@<TRIPOS>MOLECULE
*****
 26 28 0 0 0
SMALL
GASTEIGER

@<TRIPOS>ATOM
      1 C         139.1042  139.3049  166.4087 C.ar    1  UNL1        0.1713
      2 N         139.6449  139.8073  167.7145 N.ar    1  UNL1       -0.2211
      3 C         140.6117  140.9157  167.4203 C.ar    1  UNL1        0.0991
      4 C         140.6685  141.0985  165.9325 C.ar    1  UNL1        0.0794
      5 N         139.7368  140.1030  165.3073 N.ar    1  UNL1       -0.3045
      6 C         139.4824  139.9350  163.8386 C.3     1  UNL1        0.1324
      7 C         141.3858  141.7032  168.4356 C.ar    1  UNL1        0.0193
      8 C         142.8139  141.3503  168.7285 C.ar    1  UNL1        0.0038
      9 C         143.5879  142.1377  169.7438 C.ar    1  UNL1        0.0297
     10 C         142.9338  143.2781  170.4661 C.ar    1  UNL1        0.1401
     11 F         143.7079  144.0656  171.4814 F       1  UNL1       -0.2042
     12 C         141.5057  143.6310  170.1731 C.ar    1  UNL1        0.0297
     13 C         140.7317  142.8436  169.1578 C.ar    1  UNL1        0.0038
     14 C         141.5093  142.1008  165.1988 C.ar    1  UNL1        0.0217
     15 C         142.9886  141.8878  165.0699 C.ar    1  UNL1        0.0223
     16 C         143.8294  142.8901  164.3361 C.ar    1  UNL1        0.1004
     17 N         143.1912  144.1054  163.7313 N.ar    1  UNL1       -0.2290
     18 C         141.7120  144.3183  163.8603 C.ar    1  UNL1        0.1342
     19 C         140.8711  143.3160  164.5940 C.ar    1  UNL1        0.0360
     20 N         141.0736  145.5335  163.2555 N.am    1  UNL1       -0.2693
     21 C         140.1912  145.3960  162.0504 C.2     1  UNL1        0.2277
     22 C         139.5529  146.6113  161.4456 C.3     1  UNL1        0.0950
     23 O         139.9472  144.0432  161.4500 O.2     1  UNL1       -0.2747
     24 H         141.2339  146.4214  163.6496 H       1  UNL1        0.1563
     25 C         137.1604  137.8598  167.3486 C.3     1  UNL1        0.0772
     26 S         138.1061  138.1988  166.2347 S.3     1  UNL1       -0.0764
@<TRIPOS>BOND
     1    25    26    1
     2    26     1    1
     3     1     2   ar
     4     2     3   ar
     5     3     7    1
     6     7     8   ar
     7     8     9   ar
     8     9    10   ar
     9    10    11    1
    10    10    12   ar
    11    12    13   ar
    12     3     4   ar
    13     4    14    1
    14    14    15   ar
    15    15    16   ar
    16    16    17   ar
    17    17    18   ar
    18    18    20    1
    19    20    21   am
    20    21    22    1
    21    21    23    2
    22    18    19   ar
    23     4     5   ar
    24     5     6    1
    25     5     1   ar
    26    13     7   ar
    27    19    14   ar
    28    20    24    1
@<TRIPOS>MOLECULE
*****
 26 28 0 0 0
SMALL
GASTEIGER

@<TRIPOS>ATOM
      1 C         140.2477  140.3209  168.5218 C.ar    1  UNL1        0.1713
      2 N         141.5962  140.8115  168.0848 N.ar    1  UNL1       -0.2211
      3 C         141.7498  140.5057  166.6244 C.ar    1  UNL1        0.0991
      4 C         140.4964  139.8260  166.1587 C.ar    1  UNL1        0.0794
      5 N         139.5680  139.7118  167.3313 N.ar    1  UNL1       -0.3045
      6 C         138.2000  139.0965  167.3162 C.3     1  UNL1        0.1324
      7 C         142.9469  140.8237  165.7782 C.ar    1  UNL1        0.0193
      8 C         143.3446  142.2515  165.5479 C.ar    1  UNL1        0.0038
      9 C         144.5417  142.5694  164.7017 C.ar    1  UNL1        0.0297
     10 C         145.3409  141.4595  164.0858 C.ar    1  UNL1        0.1401
     11 F         146.5380  141.7776  163.2396 F       1  UNL1       -0.2042
     12 C         144.9432  140.0317  164.3161 C.ar    1  UNL1        0.0297
     13 C         143.7462  139.7138  165.1623 C.ar    1  UNL1        0.0038
     14 C         140.2198  139.3450  164.7651 C.ar    1  UNL1        0.0217
     15 C         140.0166  137.8820  164.5032 C.ar    1  UNL1        0.0223
     16 C         139.7400  137.4010  163.1096 C.ar    1  UNL1        0.1004
     17 N         139.6666  138.3828  161.9779 N.ar    1  UNL1       -0.2290
     18 C         139.8698  139.8457  162.2399 C.ar    1  UNL1        0.1342
     19 C         140.1463  140.3267  163.6335 C.ar    1  UNL1        0.0360
     20 N         139.7963  140.8276  161.1083 N.am    1  UNL1       -0.2693
     21 C         138.5477  141.6301  160.8914 C.2     1  UNL1        0.2277
     22 C         138.4743  142.6119  159.7598 C.3     1  UNL1        0.0950
     23 O         137.3725  141.4506  161.8062 O.2     1  UNL1       -0.2747
     24 H         140.5677  140.9454  160.5080 H       1  UNL1        0.1563
     25 C         140.5638  140.8066  171.0544 C.3     1  UNL1        0.0772
     26 S         139.6788  140.4216  169.9061 S.3     1  UNL1       -0.0764
@<TRIPOS>BOND
     1    25    26    1
     2    26     1    1
     3     1     2   ar
     4     2     3   ar
     5     3     7    1
     6     7     8   ar
     7     8     9   ar
     8     9    10   ar
     9    10    11    1
    10    10    12   ar
    11    12    13   ar
    12     3     4   ar
    13     4    14    1
    14    14    15   ar
    15    15    16   ar
    16    16    17   ar
    17    17    18   ar
    18    18    20    1
    19    20    21   am
    20    21    22    1
    21    21    23    2
    22    18    19   ar
    23     4     5   ar
    24     5     6    1
    25     5     1   ar
    26    13     7   ar
    27    19    14   ar
    28    20    24    1
@<TRIPOS>MOLECULE
*****
 26 28 0 0 0
SMALL
GASTEIGER

@<TRIPOS>ATOM
      1 C         139.9038  140.6487  169.0688 C.ar    1  UNL1        0.1713
      2 N         139.4716  139.6581  168.0287 N.ar    1  UNL1       -0.2211
      3 C         139.5821  140.3177  166.6860 C.ar    1  UNL1        0.0991
      4 C         140.0826  141.7160  166.8963 C.ar    1  UNL1        0.0794
      5 N         140.2815  141.9206  168.3690 N.ar    1  UNL1       -0.3045
      6 C         140.7718  143.1765  169.0263 C.3     1  UNL1        0.1324
      7 C         139.2503  139.6893  165.3650 C.ar    1  UNL1        0.0193
      8 C         138.2763  140.3572  164.4403 C.ar    1  UNL1        0.0038
      9 C         137.9446  139.7288  163.1193 C.ar    1  UNL1        0.0297
     10 C         138.5868  138.4325  162.7231 C.ar    1  UNL1        0.1401
     11 F         138.2550  137.8041  161.4020 F       1  UNL1       -0.2042
     12 C         139.5608  137.7645  163.6478 C.ar    1  UNL1        0.0297
     13 C         139.8926  138.3930  164.9687 C.ar    1  UNL1        0.0038
     14 C         140.3393  142.7314  165.8226 C.ar    1  UNL1        0.0217
     15 C         139.2993  143.7642  165.5031 C.ar    1  UNL1        0.0223
     16 C         139.5560  144.7797  164.4294 C.ar    1  UNL1        0.1004
     17 N         140.8525  144.7624  163.6751 N.ar    1  UNL1       -0.2290
     18 C         141.8923  143.7297  163.9946 C.ar    1  UNL1        0.1342
     19 C         141.6356  142.7142  165.0683 C.ar    1  UNL1        0.0360
     20 N         143.1888  143.7123  163.2403 N.am    1  UNL1       -0.2693
     21 C         143.3660  142.7851  162.0746 C.2     1  UNL1        0.2277
     22 C         144.6624  142.7678  161.3204 C.3     1  UNL1        0.0950
     23 O         142.2466  141.8752  161.6632 O.2     1  UNL1       -0.2747
     24 H         143.9234  144.3095  163.5104 H       1  UNL1        0.1563
     25 C         141.2502  140.5293  171.2876 C.3     1  UNL1        0.0772
     26 S         139.9502  140.4095  170.5489 S.3     1  UNL1       -0.0764
@<TRIPOS>BOND
     1    25    26    1
     2    26     1    1
     3     1     2   ar
     4     2     3   ar
     5     3     7    1
     6     7     8   ar
     7     8     9   ar
     8     9    10   ar
     9    10    11    1
    10    10    12   ar
    11    12    13   ar
    12     3     4   ar
    13     4    14    1
    14    14    15   ar
    15    15    16   ar
    16    16    17   ar
    17    17    18   ar
    18    18    20    1
    19    20    21   am
    20    21    22    1
    21    21    23    2
    22    18    19   ar
    23     4     5   ar
    24     5     6    1
    25     5     1   ar
    26    13     7   ar
    27    19    14   ar
    28    20    24    1
@<TRIPOS>MOLECULE
*****
 26 28 0 0 0
SMALL
GASTEIGER

@<TRIPOS>ATOM
      1 C         139.8347  140.6903  168.3306 C.ar    1  UNL1        0.1713
      2 N         140.8060  141.7597  167.9271 N.ar    1  UNL1       -0.2211
      3 C         140.7953  141.8548  166.4301 C.ar    1  UNL1        0.0991
      4 C         139.8173  140.8441  165.9085 C.ar    1  UNL1        0.0794
      5 N         139.2236  140.1244  167.0830 N.ar    1  UNL1       -0.3045
      6 C         138.1988  139.0308  167.0209 C.3     1  UNL1        0.1324
      7 C         141.6181  142.7954  165.6004 C.ar    1  UNL1        0.0193
      8 C         143.1134  142.6770  165.5932 C.ar    1  UNL1        0.0038
      9 C         143.9361  143.6176  164.7636 C.ar    1  UNL1        0.0297
     10 C         143.2636  144.6766  163.9412 C.ar    1  UNL1        0.1401
     11 F         144.0864  145.6172  163.1115 F       1  UNL1       -0.2042
     12 C         141.7683  144.7949  163.9484 C.ar    1  UNL1        0.0297
     13 C         140.9456  143.8543  164.7781 C.ar    1  UNL1        0.0038
     14 C         139.4904  140.5965  164.4656 C.ar    1  UNL1        0.0217
     15 C         138.0900  140.8006  163.9682 C.ar    1  UNL1        0.0223
     16 C         137.7631  140.5531  162.5254 C.ar    1  UNL1        0.1004
     17 N         138.8365  140.1014  161.5799 N.ar    1  UNL1       -0.2290
     18 C         140.2368  139.8973  162.0773 C.ar    1  UNL1        0.1342
     19 C         140.5637  140.1449  163.5202 C.ar    1  UNL1        0.0360
     20 N         141.3102  139.4456  161.1319 N.am    1  UNL1       -0.2693
     21 C         141.8374  138.0435  161.2104 C.2     1  UNL1        0.2277
     22 C         142.9108  137.5918  160.2650 C.3     1  UNL1        0.0950
     23 O         141.2911  137.0931  162.2344 O.2     1  UNL1       -0.2747
     24 H         141.6687  140.0694  160.4599 H       1  UNL1        0.1563
     25 C         140.5371  140.4815  170.8232 C.3     1  UNL1        0.0772
     26 S         139.5282  140.2620  169.7351 S.3     1  UNL1       -0.0764
@<TRIPOS>BOND
     1    25    26    1
     2    26     1    1
     3     1     2   ar
     4     2     3   ar
     5     3     7    1
     6     7     8   ar
     7     8     9   ar
     8     9    10   ar
     9    10    11    1
    10    10    12   ar
    11    12    13   ar
    12     3     4   ar
    13     4    14    1
    14    14    15   ar
    15    15    16   ar
    16    16    17   ar
    17    17    18   ar
    18    18    20    1
    19    20    21   am
    20    21    22    1
    21    21    23    2
    22    18    19   ar
    23     4     5   ar
    24     5     6    1
    25     5     1   ar
    26    13     7   ar
    27    19    14   ar
    28    20    24    1
@<TRIPOS>MOLECULE
*****
 26 28 0 0 0
SMALL
GASTEIGER

@<TRIPOS>ATOM
      1 C         138.4406  141.7594  158.6456 C.ar    1  UNL1        0.1713
      2 N         138.2054  142.8374  159.6617 N.ar    1  UNL1       -0.2211
      3 C         138.7279  142.3524  160.9815 C.ar    1  UNL1        0.0991
      4 C         139.2860  140.9746  160.7810 C.ar    1  UNL1        0.0794
      5 N         139.1085  140.6081  159.3374 N.ar    1  UNL1       -0.3045
      6 C         139.5255  139.3170  158.6978 C.3     1  UNL1        0.1324
      7 C         138.6975  143.1119  162.2747 C.ar    1  UNL1        0.0193
      8 C         137.6683  142.7814  163.3146 C.ar    1  UNL1        0.0038
      9 C         137.6380  143.5409  164.6078 C.ar    1  UNL1        0.0297
     10 C         138.6369  144.6308  164.8610 C.ar    1  UNL1        0.1401
     11 F         138.6066  145.3903  166.1542 F       1  UNL1       -0.2042
     12 C         139.6662  144.9613  163.8211 C.ar    1  UNL1        0.0297
     13 C         139.6964  144.2018  162.5280 C.ar    1  UNL1        0.0038
     14 C         139.9118  140.1144  161.8385 C.ar    1  UNL1        0.0217
     15 C         141.4015  139.9438  161.8819 C.ar    1  UNL1        0.0223
     16 C         142.0273  139.0835  162.9394 C.ar    1  UNL1        0.1004
     17 N         141.1635  138.3938  163.9535 N.ar    1  UNL1       -0.2290
     18 C         139.6739  138.5644  163.9100 C.ar    1  UNL1        0.1342
     19 C         139.0481  139.4247  162.8526 C.ar    1  UNL1        0.0360
     20 N         138.8101  137.8748  164.9240 N.am    1  UNL1       -0.2693
     21 C         138.2774  138.6392  166.0996 C.2     1  UNL1        0.2277
     22 C         137.4136  137.9495  167.1136 C.3     1  UNL1        0.0950
     23 O         138.6087  140.0932  166.2611 O.2     1  UNL1       -0.2747
     24 H         138.5927  136.9204  164.8180 H       1  UNL1        0.1563
     25 C         136.8130  141.1661  156.7094 C.3     1  UNL1        0.0772
     26 S         138.0726  141.8217  157.1928 S.3     1  UNL1       -0.0764
@<TRIPOS>BOND
     1    25    26    1
     2    26     1    1
     3     1     2   ar
     4     2     3   ar
     5     3     7    1
     6     7     8   ar
     7     8     9   ar
     8     9    10   ar
     9    10    11    1
    10    10    12   ar
    11    12    13   ar
    12     3     4   ar
    13     4    14    1
    14    14    15   ar
    15    15    16   ar
    16    16    17   ar
    17    17    18   ar
    18    18    20    1
    19    20    21   am
    20    21    22    1
    21    21    23    2
    22    18    19   ar
    23     4     5   ar
    24     5     6    1
    25     5     1   ar
    26    13     7   ar
    27    19    14   ar
    28    20    24    1
@<TRIPOS>MOLECULE
*****
 26 28 0 0 0
SMALL
GASTEIGER

@<TRIPOS>ATOM
      1 C         138.4743  141.7589  158.5198 C.ar    1  UNL1        0.1713
      2 N         138.2891  142.8585  159.5231 N.ar    1  UNL1       -0.2211
      3 C         138.6397  142.3150  160.8765 C.ar    1  UNL1        0.0991
      4 C         139.0416  140.8795  160.7097 C.ar    1  UNL1        0.0794
      5 N         138.9394  140.5358  159.2532 N.ar    1  UNL1       -0.3045
      6 C         139.2480  139.2030  158.6380 C.3     1  UNL1        0.1324
      7 C         138.5961  143.0738  162.1697 C.ar    1  UNL1        0.0193
      8 C         137.6349  142.6659  163.2466 C.ar    1  UNL1        0.0038
      9 C         137.5913  143.4247  164.5397 C.ar    1  UNL1        0.0297
     10 C         138.5088  144.5915  164.7560 C.ar    1  UNL1        0.1401
     11 F         138.4652  145.3503  166.0492 F       1  UNL1       -0.2042
     12 C         139.4700  144.9994  163.6791 C.ar    1  UNL1        0.0297
     13 C         139.5136  144.2406  162.3860 C.ar    1  UNL1        0.0038
     14 C         139.4704  139.9508  161.8067 C.ar    1  UNL1        0.0217
     15 C         138.6115  138.7771  162.1742 C.ar    1  UNL1        0.0223
     16 C         139.0404  137.8484  163.2713 C.ar    1  UNL1        0.1004
     17 N         140.3280  138.0931  164.0008 N.ar    1  UNL1       -0.2290
     18 C         141.1868  139.2667  163.6333 C.ar    1  UNL1        0.1342
     19 C         140.7579  140.1955  162.5362 C.ar    1  UNL1        0.0360
     20 N         142.4744  139.5116  164.3627 N.am    1  UNL1       -0.2693
     21 C         143.7768  139.0958  163.7456 C.2     1  UNL1        0.2277
     22 C         145.0644  139.3407  164.4751 C.3     1  UNL1        0.0950
     23 O         143.7915  138.4352  162.3989 O.2     1  UNL1       -0.2747
     24 H         142.4646  139.9452  165.2466 H       1  UNL1        0.1563
     25 C         136.8416  141.7672  156.4988 C.3     1  UNL1        0.0772
     26 S         138.2363  141.8640  157.0425 S.3     1  UNL1       -0.0764
@<TRIPOS>BOND
     1    25    26    1
     2    26     1    1
     3     1     2   ar
     4     2     3   ar
     5     3     7    1
     6     7     8   ar
     7     8     9   ar
     8     9    10   ar
     9    10    11    1
    10    10    12   ar
    11    12    13   ar
    12     3     4   ar
    13     4    14    1
    14    14    15   ar
    15    15    16   ar
    16    16    17   ar
    17    17    18   ar
    18    18    20    1
    19    20    21   am
    20    21    22    1
    21    21    23    2
    22    18    19   ar
    23     4     5   ar
    24     5     6    1
    25     5     1   ar
    26    13     7   ar
    27    19    14   ar
    28    20    24    1
@<TRIPOS>MOLECULE
*****
 26 28 0 0 0
SMALL
GASTEIGER

@<TRIPOS>ATOM
      1 C         140.3508  140.0553  169.1775 C.ar    1  UNL1        0.1713
      2 N         139.3399  139.7115  168.1239 N.ar    1  UNL1       -0.2211
      3 C         140.0479  139.6566  166.8026 C.ar    1  UNL1        0.0991
      4 C         141.4962  139.9665  167.0396 C.ar    1  UNL1        0.0794
      5 N         141.6835  140.2129  168.5073 N.ar    1  UNL1       -0.3045
      6 C         142.9764  140.5566  169.1857 C.3     1  UNL1        0.1324
      7 C         139.4180  139.3463  165.4771 C.ar    1  UNL1        0.0193
      8 C         139.5450  137.9719  164.8897 C.ar    1  UNL1        0.0038
      9 C         138.9152  137.6617  163.5642 C.ar    1  UNL1        0.0297
     10 C         138.1582  138.7257  162.8261 C.ar    1  UNL1        0.1401
     11 F         137.5283  138.4154  161.5006 F       1  UNL1       -0.2042
     12 C         138.0311  140.1000  163.4135 C.ar    1  UNL1        0.0297
     13 C         138.6610  140.4103  164.7390 C.ar    1  UNL1        0.0038
     14 C         142.5691  140.0205  165.9926 C.ar    1  UNL1        0.0217
     15 C         143.5554  138.8969  165.8710 C.ar    1  UNL1        0.0223
     16 C         144.6283  138.9509  164.8240 C.ar    1  UNL1        0.1004
     17 N         144.7148  140.1284  163.8988 N.ar    1  UNL1       -0.2290
     18 C         143.7285  141.2519  164.0205 C.ar    1  UNL1        0.1342
     19 C         142.6557  141.1979  165.0674 C.ar    1  UNL1        0.0360
     20 N         143.8150  142.4294  163.0953 N.am    1  UNL1       -0.2693
     21 C         144.0999  143.7957  163.6448 C.2     1  UNL1        0.2277
     22 C         144.1863  144.9732  162.7196 C.3     1  UNL1        0.0950
     23 O         144.2982  143.9844  165.1197 O.2     1  UNL1       -0.2747
     24 H         143.6848  142.3055  162.1273 H       1  UNL1        0.1563
     25 C         140.3808  141.5139  171.3273 C.3     1  UNL1        0.0772
     26 S         140.0770  140.2137  170.6437 S.3     1  UNL1       -0.0764
@<TRIPOS>BOND
     1    25    26    1
     2    26     1    1
     3     1     2   ar
     4     2     3   ar
     5     3     7    1
     6     7     8   ar
     7     8     9   ar
     8     9    10   ar
     9    10    11    1
    10    10    12   ar
    11    12    13   ar
    12     3     4   ar
    13     4    14    1
    14    14    15   ar
    15    15    16   ar
    16    16    17   ar
    17    17    18   ar
    18    18    20    1
    19    20    21   am
    20    21    22    1
    21    21    23    2
    22    18    19   ar
    23     4     5   ar
    24     5     6    1
    25     5     1   ar
    26    13     7   ar
    27    19    14   ar
    28    20    24    1
@<TRIPOS>MOLECULE
*****
 26 28 0 0 0
SMALL
GASTEIGER

@<TRIPOS>ATOM
      1 C         140.9806  140.4954  168.8999 C.ar    1  UNL1        0.1713
      2 N         139.9925  139.8792  167.9545 N.ar    1  UNL1       -0.2211
      3 C         140.3027  140.3735  166.5727 C.ar    1  UNL1        0.0991
      4 C         141.4826  141.2951  166.6640 C.ar    1  UNL1        0.0794
      5 N         141.9016  141.3705  168.1024 N.ar    1  UNL1       -0.3045
      6 C         143.0414  142.1791  168.6474 C.3     1  UNL1        0.1324
      7 C         139.5629  140.0098  165.3194 C.ar    1  UNL1        0.0193
      8 C         138.5483  140.9545  164.7465 C.ar    1  UNL1        0.0038
      9 C         137.8086  140.5909  163.4934 C.ar    1  UNL1        0.0297
     10 C         138.0834  139.2825  162.8131 C.ar    1  UNL1        0.1401
     11 F         137.3435  138.9189  161.5598 F       1  UNL1       -0.2042
     12 C         139.0979  138.3379  163.3860 C.ar    1  UNL1        0.0297
     13 C         139.8377  138.7015  164.6391 C.ar    1  UNL1        0.0038
     14 C         142.1298  142.0151  165.5183 C.ar    1  UNL1        0.0217
     15 C         143.4093  141.4952  164.9326 C.ar    1  UNL1        0.0223
     16 C         144.0565  142.2152  163.7869 C.ar    1  UNL1        0.1004
     17 N         143.4245  143.4549  163.2268 N.ar    1  UNL1       -0.2290
     18 C         142.1451  143.9747  163.8125 C.ar    1  UNL1        0.1342
     19 C         141.4979  143.2547  164.9582 C.ar    1  UNL1        0.0360
     20 N         141.5131  145.2144  163.2525 N.am    1  UNL1       -0.2693
     21 C         140.3532  145.1037  162.3077 C.2     1  UNL1        0.2277
     22 C         139.7212  146.3434  161.7477 C.3     1  UNL1        0.0950
     23 O         139.8255  143.7533  161.9230 O.2     1  UNL1       -0.2747
     24 H         141.8594  146.1007  163.5050 H       1  UNL1        0.1563
     25 C         140.8122  141.4237  171.3207 C.3     1  UNL1        0.0772
     26 S         141.0378  140.2752  170.3826 S.3     1  UNL1       -0.0764
@<TRIPOS>BOND
     1    25    26    1
     2    26     1    1
     3     1     2   ar
     4     2     3   ar
     5     3     7    1
     6     7     8   ar
     7     8     9   ar
     8     9    10   ar
     9    10    11    1
    10    10    12   ar
    11    12    13   ar
    12     3     4   ar
    13     4    14    1
    14    14    15   ar
    15    15    16   ar
    16    16    17   ar
    17    17    18   ar
    18    18    20    1
    19    20    21   am
    20    21    22    1
    21    21    23    2
    22    18    19   ar
    23     4     5   ar
    24     5     6    1
    25     5     1   ar
    26    13     7   ar
    27    19    14   ar
    28    20    24    1
@<TRIPOS>MOLECULE
*****
 26 28 0 0 0
SMALL
GASTEIGER

@<TRIPOS>ATOM
      1 C         142.0969  139.5651  168.6665 C.ar    1  UNL1        0.1713
      2 N         143.0030  139.1800  167.5348 N.ar    1  UNL1       -0.2211
      3 C         142.3375  139.5802  166.2515 C.ar    1  UNL1        0.0991
      4 C         141.0201  140.2126  166.5900 C.ar    1  UNL1        0.0794
      5 N         140.8714  140.2033  168.0826 N.ar    1  UNL1       -0.3045
      6 C         139.7025  140.7382  168.8555 C.3     1  UNL1        0.1324
      7 C         142.8921  139.3827  164.8718 C.ar    1  UNL1        0.0193
      8 C         144.0348  140.2290  164.3945 C.ar    1  UNL1        0.0038
      9 C         144.5894  140.0314  163.0149 C.ar    1  UNL1        0.0297
     10 C         144.0011  138.9876  162.1125 C.ar    1  UNL1        0.1401
     11 F         144.5557  138.7900  160.7328 F       1  UNL1       -0.2042
     12 C         142.8583  138.1412  162.5897 C.ar    1  UNL1        0.0297
     13 C         142.3038  138.3388  163.9694 C.ar    1  UNL1        0.0038
     14 C         140.0260  140.7586  165.6083 C.ar    1  UNL1        0.0217
     15 C         138.9625  139.8648  165.0424 C.ar    1  UNL1        0.0223
     16 C         137.9683  140.4107  164.0608 C.ar    1  UNL1        0.1004
     17 N         138.0376  141.8503  163.6450 N.ar    1  UNL1       -0.2290
     18 C         139.1012  142.7440  164.2109 C.ar    1  UNL1        0.1342
     19 C         140.0953  142.1981  165.1926 C.ar    1  UNL1        0.0360
     20 N         139.1705  144.1835  163.7952 N.am    1  UNL1       -0.2693
     21 C         139.7957  144.5561  162.4836 C.2     1  UNL1        0.2277
     22 C         139.8650  145.9957  162.0678 C.3     1  UNL1        0.0950
     23 O         140.3514  143.4890  161.5877 O.2     1  UNL1       -0.2747
     24 H         138.8058  144.8838  164.3832 H       1  UNL1        0.1563
     25 C         142.5535  140.5276  171.0361 C.3     1  UNL1        0.0772
     26 S         142.3686  139.3498  170.1259 S.3     1  UNL1       -0.0764
@<TRIPOS>BOND
     1    25    26    1
     2    26     1    1
     3     1     2   ar
     4     2     3   ar
     5     3     7    1
     6     7     8   ar
     7     8     9   ar
     8     9    10   ar
     9    10    11    1
    10    10    12   ar
    11    12    13   ar
    12     3     4   ar
    13     4    14    1
    14    14    15   ar
    15    15    16   ar
    16    16    17   ar
    17    17    18   ar
    18    18    20    1
    19    20    21   am
    20    21    22    1
    21    21    23    2
    22    18    19   ar
    23     4     5   ar
    24     5     6    1
    25     5     1   ar
    26    13     7   ar
    27    19    14   ar
    28    20    24    1
