@<TRIPOS>MOLECULE
*****
 39 43 0 0 0
SMALL
GASTEIGER

@<TRIPOS>ATOM
      1 N         139.7240  138.9616  162.5858 N.pl3   1  UNL1       -0.2598
      2 C         138.6872  137.9960  163.0783 C.2     1  UNL1        0.1681
      3 N         138.3166  137.9702  164.5315 N.2     1  UNL1       -0.2278
      4 C         138.9827  138.9100  165.4922 C.ar    1  UNL1        0.0806
      5 C         138.6120  138.8842  166.9455 C.ar    1  UNL1        0.0146
      6 C         139.2781  139.8240  167.9063 C.ar    1  UNL1       -0.0204
      7 C         138.9074  139.7982  169.3595 C.3     1  UNL1        0.0311
      8 C         140.3150  140.7897  167.4137 C.ar    1  UNL1       -0.0039
      9 C         140.6856  140.8155  165.9605 C.ar    1  UNL1       -0.0010
     10 C         140.0195  139.8757  164.9997 C.ar    1  UNL1        0.0225
     11 C         140.3902  139.9014  163.5465 C.3     1  UNL1        0.1793
     12 C         140.9811  141.7295  168.3744 C.ar    1  UNL1        0.0049
     13 C         140.2227  142.9004  168.9259 C.ar    1  UNL1        0.0368
     14 C         140.8888  143.8402  169.8866 C.ar    1  UNL1        0.1359
     15 O         140.1305  145.0110  170.4380 O.3     1  UNL1       -0.5054
     16 C         142.3134  143.6091  170.2959 C.ar    1  UNL1        0.0662
     17 C         143.0717  142.4383  169.7445 C.ar    1  UNL1        0.1432
     18 F         144.4961  142.2073  170.1537 F       1  UNL1       -0.2041
     19 C         142.4055  141.4985  168.7837 C.ar    1  UNL1        0.0298
     20 H         139.2407  145.1553  170.1824 H       1  UNL1        0.2922
     21 C         138.7651  140.5255  157.7242 C.3     1  UNL1        0.0311
     22 C         139.6153  139.7694  158.7018 C.ar    1  UNL1       -0.0198
     23 C         140.8361  139.0392  158.2260 C.ar    1  UNL1        0.0072
     24 C         141.6863  138.2831  159.2035 C.ar    1  UNL1        0.0586
     25 CL        142.9071  137.5528  158.7278 Cl      1  UNL1       -0.0822
     26 C         141.3156  138.2572  160.6568 C.ar    1  UNL1        0.0263
     27 C         140.0947  138.9875  161.1325 C.ar    1  UNL1        0.0540
     28 C         139.2446  139.7436  160.1550 C.ar    1  UNL1        0.0107
     29 C         141.4270  140.8671  163.0540 C.2     1  UNL1        0.2485
     30 O         141.0106  142.2001  162.5067 O.2     1  UNL1       -0.2727
     31 N         142.8803  140.4996  163.1087 N.am    1  UNL1       -0.2748
     32 C         143.2967  139.1665  163.6560 C.3     1  UNL1        0.1150
     33 C         143.9171  141.4652  162.6162 C.3     1  UNL1        0.1091
     34 C         143.9190  142.8810  163.1117 C.3     1  UNL1        0.0741
     35 C         144.1884  143.3220  164.5198 C.3     1  UNL1        0.0189
     36 C         144.0878  144.8179  164.5645 C.3     1  UNL1        0.0185
     37 C         143.7562  145.3015  163.1838 C.3     1  UNL1        0.0686
     38 N         143.6519  144.1045  162.2860 N.3     1  UNL1       -0.2972
     39 H         144.3401  144.1731  161.5362 H       1  UNL1        0.1233
@<TRIPOS>BOND
     1    21    22    1
     2    22    23   ar
     3    23    24   ar
     4    24    25    1
     5    24    26   ar
     6    26    27   ar
     7    27     1    1
     8     1     2    1
     9     2     3    2
    10     3     4    1
    11     4     5   ar
    12     5     6   ar
    13     6     7    1
    14     6     8   ar
    15     8    12    1
    16    12    13   ar
    17    13    14   ar
    18    14    15    1
    19    14    16   ar
    20    16    17   ar
    21    17    18    1
    22    17    19   ar
    23     8     9   ar
    24     9    10   ar
    25    10    11    1
    26    11    29    1
    27    29    30    2
    28    29    31   am
    29    31    32    1
    30    31    33    1
    31    34    33    1
    32    34    35    1
    33    35    36    1
    34    36    37    1
    35    37    38    1
    36    27    28   ar
    37    28    22   ar
    38    11     1    1
    39    38    34    1
    40    10     4   ar
    41    19    12   ar
    42    15    20    1
    43    38    39    1
@<TRIPOS>MOLECULE
*****
 39 43 0 0 0
SMALL
GASTEIGER

@<TRIPOS>ATOM
      1 N         139.7818  139.3623  162.2173 N.pl3   1  UNL1       -0.2598
      2 C         138.7847  138.3285  162.6495 C.2     1  UNL1        0.1681
      3 N         138.4254  138.1932  164.0996 N.2     1  UNL1       -0.2278
      4 C         139.0633  139.0917  165.1173 C.ar    1  UNL1        0.0806
      5 C         138.7040  138.9563  166.5674 C.ar    1  UNL1        0.0146
      6 C         139.3419  139.8549  167.5851 C.ar    1  UNL1       -0.0204
      7 C         138.9826  139.7196  169.0351 C.3     1  UNL1        0.0311
      8 C         140.3390  140.8887  167.1527 C.ar    1  UNL1       -0.0039
      9 C         140.6983  141.0241  165.7027 C.ar    1  UNL1       -0.0010
     10 C         140.0604  140.1255  164.6850 C.ar    1  UNL1        0.0225
     11 C         140.4197  140.2608  163.2350 C.3     1  UNL1        0.1793
     12 C         140.9769  141.7873  168.1705 C.ar    1  UNL1        0.0049
     13 C         140.1892  142.9098  168.7785 C.ar    1  UNL1        0.0368
     14 C         140.8271  143.8083  169.7963 C.ar    1  UNL1        0.1359
     15 O         140.0395  144.9308  170.4043 O.3     1  UNL1       -0.5054
     16 C         142.2526  143.5843  170.2059 C.ar    1  UNL1        0.0662
     17 C         143.0402  142.4619  169.5979 C.ar    1  UNL1        0.1432
     18 F         144.4657  142.2380  170.0076 F       1  UNL1       -0.2041
     19 C         142.4024  141.5634  168.5802 C.ar    1  UNL1        0.0298
     20 H         139.1491  145.0706  170.1484 H       1  UNL1        0.2922
     21 C         139.1212  141.6827  157.6151 C.3     1  UNL1        0.0311
     22 C         139.8108  140.6579  158.4662 C.ar    1  UNL1       -0.0198
     23 C         140.8596  139.7684  157.8671 C.ar    1  UNL1        0.0072
     24 C         141.5492  138.7435  158.7181 C.ar    1  UNL1        0.0586
     25 CL        142.5980  137.8541  158.1191 Cl      1  UNL1       -0.0822
     26 C         141.1899  138.6082  160.1682 C.ar    1  UNL1        0.0263
     27 C         140.1411  139.4976  160.7672 C.ar    1  UNL1        0.0540
     28 C         139.4515  140.5225  159.9162 C.ar    1  UNL1        0.0107
     29 C         141.4168  141.2947  162.8026 C.2     1  UNL1        0.2485
     30 O         142.8724  140.9428  162.7161 O.2     1  UNL1       -0.2727
     31 N         140.9584  142.6804  162.4569 N.am    1  UNL1       -0.2748
     32 C         139.5027  143.0323  162.5435 C.3     1  UNL1        0.1150
     33 C         141.9554  143.7143  162.0245 C.3     1  UNL1        0.1091
     34 C         142.0378  144.1201  160.5828 C.3     1  UNL1        0.0741
     35 C         142.5141  143.2595  159.4504 C.3     1  UNL1        0.0189
     36 C         142.4290  144.0654  158.1881 C.3     1  UNL1        0.0185
     37 C         141.9000  145.4241  158.5404 C.3     1  UNL1        0.0686
     38 N         141.6582  145.4579  160.0204 N.3     1  UNL1       -0.2972
     39 H         140.6727  145.6444  160.2060 H       1  UNL1        0.1233
@<TRIPOS>BOND
     1    21    22    1
     2    22    23   ar
     3    23    24   ar
     4    24    25    1
     5    24    26   ar
     6    26    27   ar
     7    27     1    1
     8     1     2    1
     9     2     3    2
    10     3     4    1
    11     4     5   ar
    12     5     6   ar
    13     6     7    1
    14     6     8   ar
    15     8    12    1
    16    12    13   ar
    17    13    14   ar
    18    14    15    1
    19    14    16   ar
    20    16    17   ar
    21    17    18    1
    22    17    19   ar
    23     8     9   ar
    24     9    10   ar
    25    10    11    1
    26    11    29    1
    27    29    30    2
    28    29    31   am
    29    31    32    1
    30    31    33    1
    31    34    33    1
    32    34    35    1
    33    35    36    1
    34    36    37    1
    35    37    38    1
    36    27    28   ar
    37    28    22   ar
    38    11     1    1
    39    38    34    1
    40    10     4   ar
    41    19    12   ar
    42    15    20    1
    43    38    39    1
@<TRIPOS>MOLECULE
*****
 39 43 0 0 0
SMALL
GASTEIGER

@<TRIPOS>ATOM
      1 N         139.6617  138.9939  162.5696 N.pl3   1  UNL1       -0.2598
      2 C         138.6243  138.0308  163.0657 C.2     1  UNL1        0.1681
      3 N         138.2649  138.0000  164.5216 N.2     1  UNL1       -0.2278
      4 C         138.9429  138.9323  165.4814 C.ar    1  UNL1        0.0806
      5 C         138.5834  138.9015  166.9375 C.ar    1  UNL1        0.0146
      6 C         139.2614  139.8338  167.8972 C.ar    1  UNL1       -0.0204
      7 C         138.9020  139.8030  169.3532 C.3     1  UNL1        0.0311
      8 C         140.2988  140.7969  167.4010 C.ar    1  UNL1       -0.0039
      9 C         140.6583  140.8277  165.9451 C.ar    1  UNL1       -0.0010
     10 C         139.9803  139.8954  164.9853 C.ar    1  UNL1        0.0225
     11 C         140.3397  139.9262  163.5293 C.3     1  UNL1        0.1793
     12 C         140.9768  141.7292  168.3608 C.ar    1  UNL1        0.0049
     13 C         140.2313  142.9064  168.9161 C.ar    1  UNL1        0.0368
     14 C         140.9092  143.8387  169.8759 C.ar    1  UNL1        0.1359
     15 O         140.1638  145.0159  170.4311 O.3     1  UNL1       -0.5054
     16 C         142.3328  143.5937  170.2804 C.ar    1  UNL1        0.0662
     17 C         143.0783  142.4165  169.7251 C.ar    1  UNL1        0.1432
     18 F         144.5018  142.1716  170.1296 F       1  UNL1       -0.2041
     19 C         142.4003  141.4842  168.7653 C.ar    1  UNL1        0.0298
     20 H         139.2745  145.1689  170.1785 H       1  UNL1        0.2922
     21 C         142.8171  137.6015  158.6830 C.3     1  UNL1        0.0311
     22 C         141.5989  138.3285  159.1703 C.ar    1  UNL1       -0.0198
     23 C         140.7402  139.0864  158.2016 C.ar    1  UNL1        0.0072
     24 C         139.5220  139.8134  158.6889 C.ar    1  UNL1        0.0586
     25 CL        138.6634  140.5713  157.7203 Cl      1  UNL1       -0.0822
     26 C         139.1626  139.7826  160.1449 C.ar    1  UNL1        0.0263
     27 C         140.0212  139.0248  161.1135 C.ar    1  UNL1        0.0540
     28 C         141.2394  138.2977  160.6263 C.ar    1  UNL1        0.0107
     29 C         141.3772  140.8893  163.0331 C.2     1  UNL1        0.2485
     30 O         140.9624  142.2249  162.4908 O.2     1  UNL1       -0.2727
     31 N         142.8295  140.5168  163.0792 N.am    1  UNL1       -0.2748
     32 C         143.2443  139.1811  163.6216 C.3     1  UNL1        0.1150
     33 C         143.8669  141.4798  162.5830 C.3     1  UNL1        0.1091
     34 C         143.8867  142.8899  163.0940 C.3     1  UNL1        0.0741
     35 C         144.1889  143.3138  164.5008 C.3     1  UNL1        0.0189
     36 C         144.0968  144.8097  164.5641 C.3     1  UNL1        0.0185
     37 C         143.7375  145.3103  163.1965 C.3     1  UNL1        0.0686
     38 N         143.6077  144.1238  162.2880 N.3     1  UNL1       -0.2972
     39 H         144.2797  144.1976  161.5242 H       1  UNL1        0.1233
@<TRIPOS>BOND
     1    21    22    1
     2    22    23   ar
     3    23    24   ar
     4    24    25    1
     5    24    26   ar
     6    26    27   ar
     7    27     1    1
     8     1     2    1
     9     2     3    2
    10     3     4    1
    11     4     5   ar
    12     5     6   ar
    13     6     7    1
    14     6     8   ar
    15     8    12    1
    16    12    13   ar
    17    13    14   ar
    18    14    15    1
    19    14    16   ar
    20    16    17   ar
    21    17    18    1
    22    17    19   ar
    23     8     9   ar
    24     9    10   ar
    25    10    11    1
    26    11    29    1
    27    29    30    2
    28    29    31   am
    29    31    32    1
    30    31    33    1
    31    34    33    1
    32    34    35    1
    33    35    36    1
    34    36    37    1
    35    37    38    1
    36    27    28   ar
    37    28    22   ar
    38    11     1    1
    39    38    34    1
    40    10     4   ar
    41    19    12   ar
    42    15    20    1
    43    38    39    1
@<TRIPOS>MOLECULE
*****
 39 43 0 0 0
SMALL
GASTEIGER

@<TRIPOS>ATOM
      1 N         139.7850  139.3251  162.4548 N.pl3   1  UNL1       -0.2598
      2 C         138.7908  138.2969  162.9067 C.2     1  UNL1        0.1681
      3 N         138.4339  138.1865  164.3594 N.2     1  UNL1       -0.2278
      4 C         139.0711  139.1043  165.3602 C.ar    1  UNL1        0.0806
      5 C         138.7141  138.9939  166.8129 C.ar    1  UNL1        0.0146
      6 C         139.3513  139.9117  167.8137 C.ar    1  UNL1       -0.0204
      7 C         138.9943  139.8013  169.2664 C.3     1  UNL1        0.0311
      8 C         140.3455  140.9400  167.3617 C.ar    1  UNL1       -0.0039
      9 C         140.7025  141.0504  165.9090 C.ar    1  UNL1       -0.0010
     10 C         140.0653  140.1326  164.9082 C.ar    1  UNL1        0.0225
     11 C         140.4222  140.2430  163.4556 C.3     1  UNL1        0.1793
     12 C         140.9827  141.8579  168.3625 C.ar    1  UNL1        0.0049
     13 C         142.3720  141.5810  168.8559 C.ar    1  UNL1        0.0368
     14 C         143.0092  142.4989  169.8567 C.ar    1  UNL1        0.1359
     15 O         144.3984  142.2221  170.3501 O.3     1  UNL1       -0.5054
     16 C         142.2572  143.6935  170.3640 C.ar    1  UNL1        0.0662
     17 C         140.8680  143.9703  169.8705 C.ar    1  UNL1        0.1432
     18 F         140.1160  145.1649  170.3779 F       1  UNL1       -0.2041
     19 C         140.2308  143.0525  168.8698 C.ar    1  UNL1        0.0298
     20 H         144.8681  141.4759  170.0332 H       1  UNL1        0.2922
     21 C         142.6336  137.7846  158.3913 C.3     1  UNL1        0.0311
     22 C         141.5663  138.6653  158.9703 C.ar    1  UNL1       -0.0198
     23 C         140.8561  139.6564  158.0966 C.ar    1  UNL1        0.0072
     24 C         139.7888  140.5371  158.6757 C.ar    1  UNL1        0.0586
     25 CL        139.0785  141.5282  157.8021 Cl      1  UNL1       -0.0822
     26 C         139.4318  140.4267  160.1284 C.ar    1  UNL1        0.0263
     27 C         140.1420  139.4356  161.0020 C.ar    1  UNL1        0.0540
     28 C         141.2093  138.5549  160.4230 C.ar    1  UNL1        0.0107
     29 C         141.4165  141.2712  163.0036 C.2     1  UNL1        0.2485
     30 O         142.8731  140.9221  162.9243 O.2     1  UNL1       -0.2727
     31 N         140.9540  142.6487  162.6309 N.am    1  UNL1       -0.2748
     32 C         139.4973  142.9978  162.7102 C.3     1  UNL1        0.1150
     33 C         141.9481  143.6769  162.1789 C.3     1  UNL1        0.1091
     34 C         141.9971  144.0902  160.7378 C.3     1  UNL1        0.0741
     35 C         142.4539  143.2378  159.5912 C.3     1  UNL1        0.0189
     36 C         142.3370  144.0493  158.3350 C.3     1  UNL1        0.0185
     37 C         141.8080  145.4031  158.7053 C.3     1  UNL1        0.0686
     38 N         141.5979  145.4284  160.1903 N.3     1  UNL1       -0.2972
     39 H         140.6156  145.6083  160.3979 H       1  UNL1        0.1233
@<TRIPOS>BOND
     1    21    22    1
     2    22    23   ar
     3    23    24   ar
     4    24    25    1
     5    24    26   ar
     6    26    27   ar
     7    27     1    1
     8     1     2    1
     9     2     3    2
    10     3     4    1
    11     4     5   ar
    12     5     6   ar
    13     6     7    1
    14     6     8   ar
    15     8    12    1
    16    12    13   ar
    17    13    14   ar
    18    14    15    1
    19    14    16   ar
    20    16    17   ar
    21    17    18    1
    22    17    19   ar
    23     8     9   ar
    24     9    10   ar
    25    10    11    1
    26    11    29    1
    27    29    30    2
    28    29    31   am
    29    31    32    1
    30    31    33    1
    31    34    33    1
    32    34    35    1
    33    35    36    1
    34    36    37    1
    35    37    38    1
    36    27    28   ar
    37    28    22   ar
    38    11     1    1
    39    38    34    1
    40    10     4   ar
    41    19    12   ar
    42    15    20    1
    43    38    39    1
@<TRIPOS>MOLECULE
*****
 39 43 0 0 0
SMALL
GASTEIGER

@<TRIPOS>ATOM
      1 N         143.1762  140.0152  161.9556 N.pl3   1  UNL1       -0.2598
      2 C         144.1264  138.8956  162.2614 C.2     1  UNL1        0.1681
      3 N         144.2858  138.4116  163.6722 N.2     1  UNL1       -0.2278
      4 C         143.4951  139.0472  164.7771 C.ar    1  UNL1        0.0806
      5 C         143.6545  138.5631  166.1879 C.ar    1  UNL1        0.0146
      6 C         142.8638  139.1986  167.2928 C.ar    1  UNL1       -0.0204
      7 C         143.0232  138.7146  168.7035 C.3     1  UNL1        0.0311
      8 C         141.9136  140.3183  166.9868 C.ar    1  UNL1       -0.0039
      9 C         141.7541  140.8023  165.5761 C.ar    1  UNL1       -0.0010
     10 C         142.5449  140.1668  164.4712 C.ar    1  UNL1        0.0225
     11 C         142.3854  140.6508  163.0605 C.3     1  UNL1        0.1793
     12 C         141.1228  140.9539  168.0917 C.ar    1  UNL1        0.0049
     13 C         140.0275  140.1844  168.7687 C.ar    1  UNL1        0.0368
     14 C         139.2367  140.8199  169.8735 C.ar    1  UNL1        0.1359
     15 O         138.1414  140.0505  170.5505 O.3     1  UNL1       -0.5054
     16 C         139.5414  142.2250  170.3015 C.ar    1  UNL1        0.0662
     17 C         140.6367  142.9944  169.6246 C.ar    1  UNL1        0.1432
     18 F         140.9412  144.3994  170.0526 F       1  UNL1       -0.2041
     19 C         141.4274  142.3589  168.5197 C.ar    1  UNL1        0.0298
     20 H         137.9512  139.1729  170.2831 H       1  UNL1        0.2922
     21 C         144.9732  142.7101  157.8925 C.3     1  UNL1        0.0311
     22 C         143.9153  141.8468  158.5133 C.ar    1  UNL1       -0.0198
     23 C         142.6978  141.4675  157.7232 C.ar    1  UNL1        0.0072
     24 C         141.6398  140.6042  158.3440 C.ar    1  UNL1        0.0586
     25 CL        140.4224  140.2250  157.5541 Cl      1  UNL1       -0.0822
     26 C         141.7993  140.1201  159.7548 C.ar    1  UNL1        0.0263
     27 C         143.0167  140.4993  160.5448 C.ar    1  UNL1        0.0540
     28 C         144.0747  141.3627  159.9240 C.ar    1  UNL1        0.0107
     29 C         141.4352  141.7705  162.7546 C.2     1  UNL1        0.2485
     30 O         139.9897  141.4747  162.4846 O.2     1  UNL1       -0.2727
     31 N         141.9306  143.1859  162.7186 N.am    1  UNL1       -0.2748
     32 C         143.3763  143.4816  162.9885 C.3     1  UNL1        0.1150
     33 C         140.9805  144.3055  162.4127 C.3     1  UNL1        0.1091
     34 C         139.6670  144.3922  163.1319 C.3     1  UNL1        0.0741
     35 C         139.4787  144.6765  164.5926 C.3     1  UNL1        0.0189
     36 C         138.0066  144.6698  164.8802 C.3     1  UNL1        0.0185
     37 C         137.2850  144.3813  163.5972 C.3     1  UNL1        0.0686
     38 N         138.3112  144.2097  162.5167 N.3     1  UNL1       -0.2972
     39 H         138.1655  144.9073  161.7870 H       1  UNL1        0.1233
@<TRIPOS>BOND
     1    21    22    1
     2    22    23   ar
     3    23    24   ar
     4    24    25    1
     5    24    26   ar
     6    26    27   ar
     7    27     1    1
     8     1     2    1
     9     2     3    2
    10     3     4    1
    11     4     5   ar
    12     5     6   ar
    13     6     7    1
    14     6     8   ar
    15     8    12    1
    16    12    13   ar
    17    13    14   ar
    18    14    15    1
    19    14    16   ar
    20    16    17   ar
    21    17    18    1
    22    17    19   ar
    23     8     9   ar
    24     9    10   ar
    25    10    11    1
    26    11    29    1
    27    29    30    2
    28    29    31   am
    29    31    32    1
    30    31    33    1
    31    34    33    1
    32    34    35    1
    33    35    36    1
    34    36    37    1
    35    37    38    1
    36    27    28   ar
    37    28    22   ar
    38    11     1    1
    39    38    34    1
    40    10     4   ar
    41    19    12   ar
    42    15    20    1
    43    38    39    1
@<TRIPOS>MOLECULE
*****
 39 43 0 0 0
SMALL
GASTEIGER

@<TRIPOS>ATOM
      1 N         139.8840  143.7822  161.3677 N.pl3   1  UNL1       -0.2598
      2 C         140.5438  144.9365  160.6734 C.2     1  UNL1        0.1681
      3 N         140.4601  145.0613  159.1810 N.2     1  UNL1       -0.2278
      4 C         139.7165  144.0317  158.3828 C.ar    1  UNL1        0.0806
      5 C         139.6328  144.1565  156.8903 C.ar    1  UNL1        0.0146
      6 C         138.8893  143.1269  156.0922 C.ar    1  UNL1       -0.0204
      7 C         138.8055  143.2516  154.5997 C.3     1  UNL1        0.0311
      8 C         138.2294  141.9725  156.7865 C.ar    1  UNL1       -0.0039
      9 C         138.3131  141.8477  158.2789 C.ar    1  UNL1       -0.0010
     10 C         139.0567  142.8773  159.0771 C.ar    1  UNL1        0.0225
     11 C         139.1404  142.7526  160.5695 C.3     1  UNL1        0.1793
     12 C         137.4859  140.9429  155.9884 C.ar    1  UNL1        0.0049
     13 C         135.9967  141.0425  155.8376 C.ar    1  UNL1        0.0368
     14 C         135.2532  140.0129  155.0395 C.ar    1  UNL1        0.1359
     15 O         133.7641  140.1124  154.8887 O.3     1  UNL1       -0.5054
     16 C         135.9987  138.8837  154.3921 C.ar    1  UNL1        0.0662
     17 C         137.4878  138.7841  154.5428 C.ar    1  UNL1        0.1432
     18 F         138.2333  137.6549  153.8954 F       1  UNL1       -0.2041
     19 C         138.2313  139.8137  155.3410 C.ar    1  UNL1        0.0298
     20 H         133.2984  140.8178  155.2931 H       1  UNL1        0.2922
     21 C         141.9533  141.5696  165.5894 C.3     1  UNL1        0.0311
     22 C         141.0024  142.5511  164.9710 C.ar    1  UNL1       -0.0198
     23 C         140.1351  143.4078  165.8451 C.ar    1  UNL1        0.0072
     24 C         139.1841  144.3892  165.2268 C.ar    1  UNL1        0.0586
     25 CL        138.3169  145.2459  166.1008 Cl      1  UNL1       -0.0822
     26 C         139.1004  144.5140  163.7342 C.ar    1  UNL1        0.0263
     27 C         139.9677  143.6574  162.8602 C.ar    1  UNL1        0.0540
     28 C         140.9186  142.6759  163.4786 C.ar    1  UNL1        0.0107
     29 C         138.4805  141.5982  161.2639 C.2     1  UNL1        0.2485
     30 O         137.1274  141.7720  161.8872 O.2     1  UNL1       -0.2727
     31 N         139.1740  140.2700  161.3348 N.am    1  UNL1       -0.2748
     32 C         140.5272  140.0962  160.7115 C.3     1  UNL1        0.1150
     33 C         138.5142  139.1156  162.0291 C.3     1  UNL1        0.1091
     34 C         138.4919  139.0551  163.5278 C.3     1  UNL1        0.0741
     35 C         138.9715  137.9112  164.3712 C.3     1  UNL1        0.0189
     36 C         138.7622  138.2770  165.8108 C.3     1  UNL1        0.0185
     37 C         138.1532  139.6470  165.8571 C.3     1  UNL1        0.0686
     38 N         137.9862  140.1279  164.4461 N.3     1  UNL1       -0.2972
     39 H         138.5225  140.9842  164.3065 H       1  UNL1        0.1233
@<TRIPOS>BOND
     1    21    22    1
     2    22    23   ar
     3    23    24   ar
     4    24    25    1
     5    24    26   ar
     6    26    27   ar
     7    27     1    1
     8     1     2    1
     9     2     3    2
    10     3     4    1
    11     4     5   ar
    12     5     6   ar
    13     6     7    1
    14     6     8   ar
    15     8    12    1
    16    12    13   ar
    17    13    14   ar
    18    14    15    1
    19    14    16   ar
    20    16    17   ar
    21    17    18    1
    22    17    19   ar
    23     8     9   ar
    24     9    10   ar
    25    10    11    1
    26    11    29    1
    27    29    30    2
    28    29    31   am
    29    31    32    1
    30    31    33    1
    31    34    33    1
    32    34    35    1
    33    35    36    1
    34    36    37    1
    35    37    38    1
    36    27    28   ar
    37    28    22   ar
    38    11     1    1
    39    38    34    1
    40    10     4   ar
    41    19    12   ar
    42    15    20    1
    43    38    39    1
@<TRIPOS>MOLECULE
*****
 39 43 0 0 0
SMALL
GASTEIGER

@<TRIPOS>ATOM
      1 N         139.9134  143.7339  161.3093 N.pl3   1  UNL1       -0.2598
      2 C         140.5722  144.8852  160.6089 C.2     1  UNL1        0.1681
      3 N         140.4752  145.0103  159.1173 N.2     1  UNL1       -0.2278
      4 C         139.7195  143.9842  158.3261 C.ar    1  UNL1        0.0806
      5 C         139.6225  144.1094  156.8345 C.ar    1  UNL1        0.0146
      6 C         138.8668  143.0833  156.0433 C.ar    1  UNL1       -0.0204
      7 C         138.7698  143.2084  154.5517 C.3     1  UNL1        0.0311
      8 C         138.2080  141.9319  156.7438 C.ar    1  UNL1       -0.0039
      9 C         138.3050  141.8068  158.2354 C.ar    1  UNL1       -0.0010
     10 C         139.0607  142.8329  159.0265 C.ar    1  UNL1        0.0225
     11 C         139.1577  142.7078  160.5181 C.3     1  UNL1        0.1793
     12 C         137.4523  140.9058  155.9526 C.ar    1  UNL1        0.0049
     13 C         135.9618  141.0100  155.8192 C.ar    1  UNL1        0.0368
     14 C         135.2061  139.9839  155.0280 C.ar    1  UNL1        0.1359
     15 O         133.7157  140.0880  154.8946 O.3     1  UNL1       -0.5054
     16 C         135.9409  138.8536  154.3702 C.ar    1  UNL1        0.0662
     17 C         137.4313  138.7494  154.5036 C.ar    1  UNL1        0.1432
     18 F         138.1660  137.6192  153.8459 F       1  UNL1       -0.2041
     19 C         138.1870  139.7756  155.2948 C.ar    1  UNL1        0.0298
     20 H         133.2568  140.7941  155.3055 H       1  UNL1        0.2922
     21 C         138.3466  145.1543  166.0556 C.3     1  UNL1        0.0311
     22 C         139.2270  144.3189  165.1741 C.ar    1  UNL1       -0.0198
     23 C         140.2043  143.3584  165.7843 C.ar    1  UNL1        0.0072
     24 C         141.0847  142.5230  164.9027 C.ar    1  UNL1        0.0586
     25 CL        142.0620  141.5625  165.5128 Cl      1  UNL1       -0.0822
     26 C         140.9877  142.6482  163.4111 C.ar    1  UNL1        0.0263
     27 C         140.0104  143.6087  162.8010 C.ar    1  UNL1        0.0540
     28 C         139.1300  144.4441  163.6825 C.ar    1  UNL1        0.0107
     29 C         138.4990  141.5565  161.2186 C.2     1  UNL1        0.2485
     30 O         137.1434  141.7309  161.8366 O.2     1  UNL1       -0.2727
     31 N         139.1959  140.2308  161.3011 N.am    1  UNL1       -0.2748
     32 C         140.5515  140.0563  160.6830 C.3     1  UNL1        0.1150
     33 C         138.5372  139.0795  162.0015 C.3     1  UNL1        0.1091
     34 C         138.5074  139.0313  163.5004 C.3     1  UNL1        0.0741
     35 C         138.9711  137.8893  164.3553 C.3     1  UNL1        0.0189
     36 C         138.7590  138.2688  165.7909 C.3     1  UNL1        0.0185
     37 C         138.1642  139.6455  165.8233 C.3     1  UNL1        0.0686
     38 N         138.0087  140.1167  164.4077 N.3     1  UNL1       -0.2972
     39 H         138.5546  140.9662  164.2638 H       1  UNL1        0.1233
@<TRIPOS>BOND
     1    21    22    1
     2    22    23   ar
     3    23    24   ar
     4    24    25    1
     5    24    26   ar
     6    26    27   ar
     7    27     1    1
     8     1     2    1
     9     2     3    2
    10     3     4    1
    11     4     5   ar
    12     5     6   ar
    13     6     7    1
    14     6     8   ar
    15     8    12    1
    16    12    13   ar
    17    13    14   ar
    18    14    15    1
    19    14    16   ar
    20    16    17   ar
    21    17    18    1
    22    17    19   ar
    23     8     9   ar
    24     9    10   ar
    25    10    11    1
    26    11    29    1
    27    29    30    2
    28    29    31   am
    29    31    32    1
    30    31    33    1
    31    34    33    1
    32    34    35    1
    33    35    36    1
    34    36    37    1
    35    37    38    1
    36    27    28   ar
    37    28    22   ar
    38    11     1    1
    39    38    34    1
    40    10     4   ar
    41    19    12   ar
    42    15    20    1
    43    38    39    1
@<TRIPOS>MOLECULE
*****
 39 43 0 0 0
SMALL
GASTEIGER

@<TRIPOS>ATOM
      1 N         140.0420  143.9124  161.2544 N.pl3   1  UNL1       -0.2598
      2 C         140.7725  145.0240  160.5612 C.2     1  UNL1        0.1681
      3 N         140.6892  145.1606  159.0698 N.2     1  UNL1       -0.2278
      4 C         139.8753  144.1857  158.2716 C.ar    1  UNL1        0.0806
      5 C         139.7920  144.3223  156.7801 C.ar    1  UNL1        0.0146
      6 C         138.9781  143.3474  155.9820 C.ar    1  UNL1       -0.0204
      7 C         138.8948  143.4840  154.4906 C.3     1  UNL1        0.0311
      8 C         138.2476  142.2357  156.6753 C.ar    1  UNL1       -0.0039
      9 C         138.3309  142.0991  158.1667 C.ar    1  UNL1       -0.0010
     10 C         139.1448  143.0741  158.9649 C.ar    1  UNL1        0.0225
     11 C         139.2281  142.9374  160.4563 C.3     1  UNL1        0.1793
     12 C         137.4337  141.2608  155.8771 C.ar    1  UNL1        0.0049
     13 C         138.0590  139.9904  155.3818 C.ar    1  UNL1        0.0368
     14 C         137.2451  139.0155  154.5836 C.ar    1  UNL1        0.1359
     15 O         137.8703  137.7452  154.0883 O.3     1  UNL1       -0.5054
     16 C         135.8060  139.3108  154.2808 C.ar    1  UNL1        0.0662
     17 C         135.1807  140.5811  154.7761 C.ar    1  UNL1        0.1432
     18 F         133.7416  140.8765  154.4733 F       1  UNL1       -0.2041
     19 C         135.9946  141.5561  155.5743 C.ar    1  UNL1        0.0298
     20 H         138.7693  137.5607  154.2774 H       1  UNL1        0.2922
     21 C         142.2502  141.8153  165.4647 C.3     1  UNL1        0.0311
     22 C         141.2294  142.7272  164.8510 C.ar    1  UNL1       -0.0198
     23 C         140.2920  143.5023  165.7288 C.ar    1  UNL1        0.0072
     24 C         139.2712  144.4141  165.1151 C.ar    1  UNL1        0.0586
     25 CL        138.3338  145.1892  165.9928 Cl      1  UNL1       -0.0822
     26 C         139.1879  144.5508  163.6236 C.ar    1  UNL1        0.0263
     27 C         140.1253  143.7757  162.7459 C.ar    1  UNL1        0.0540
     28 C         141.1461  142.8639  163.3596 C.ar    1  UNL1        0.0107
     29 C         138.4976  141.8258  161.1496 C.2     1  UNL1        0.2485
     30 O         137.1467  142.0768  161.7513 O.2     1  UNL1       -0.2727
     31 N         139.1180  140.4632  161.2412 N.am    1  UNL1       -0.2748
     32 C         140.4689  140.2122  160.6394 C.3     1  UNL1        0.1150
     33 C         138.3875  139.3516  161.9345 C.3     1  UNL1        0.1091
     34 C         138.4892  139.2013  163.4234 C.3     1  UNL1        0.0741
     35 C         138.2611  140.2838  164.4365 C.3     1  UNL1        0.0189
     36 C         138.4678  139.6937  165.8000 C.3     1  UNL1        0.0185
     37 C         138.8236  138.2465  165.6296 C.3     1  UNL1        0.0686
     38 N         138.8368  137.9422  164.1609 N.3     1  UNL1       -0.2972
     39 H         138.1503  137.2176  163.9513 H       1  UNL1        0.1233
@<TRIPOS>BOND
     1    21    22    1
     2    22    23   ar
     3    23    24   ar
     4    24    25    1
     5    24    26   ar
     6    26    27   ar
     7    27     1    1
     8     1     2    1
     9     2     3    2
    10     3     4    1
    11     4     5   ar
    12     5     6   ar
    13     6     7    1
    14     6     8   ar
    15     8    12    1
    16    12    13   ar
    17    13    14   ar
    18    14    15    1
    19    14    16   ar
    20    16    17   ar
    21    17    18    1
    22    17    19   ar
    23     8     9   ar
    24     9    10   ar
    25    10    11    1
    26    11    29    1
    27    29    30    2
    28    29    31   am
    29    31    32    1
    30    31    33    1
    31    34    33    1
    32    34    35    1
    33    35    36    1
    34    36    37    1
    35    37    38    1
    36    27    28   ar
    37    28    22   ar
    38    11     1    1
    39    38    34    1
    40    10     4   ar
    41    19    12   ar
    42    15    20    1
    43    38    39    1
@<TRIPOS>MOLECULE
*****
 39 43 0 0 0
SMALL
GASTEIGER

@<TRIPOS>ATOM
      1 N         142.0771  142.0620  162.0265 N.pl3   1  UNL1       -0.2598
      2 C         143.1555  142.9601  161.4970 C.2     1  UNL1        0.1681
      3 N         143.8061  142.6551  160.1804 N.2     1  UNL1       -0.2278
      4 C         143.3784  141.4519  159.3933 C.ar    1  UNL1        0.0806
      5 C         144.0291  141.1469  158.0766 C.ar    1  UNL1        0.0146
      6 C         143.6014  139.9438  157.2895 C.ar    1  UNL1       -0.0204
      7 C         144.2521  139.6388  155.9728 C.3     1  UNL1        0.0311
      8 C         142.5230  139.0457  157.8191 C.ar    1  UNL1       -0.0039
      9 C         141.8723  139.3507  159.1357 C.ar    1  UNL1       -0.0010
     10 C         142.3000  140.5538  159.9228 C.ar    1  UNL1        0.0225
     11 C         141.6494  140.8588  161.2394 C.3     1  UNL1        0.1793
     12 C         142.0952  137.8425  157.0320 C.ar    1  UNL1        0.0049
     13 C         142.8334  136.5456  157.1840 C.ar    1  UNL1        0.0368
     14 C         142.4057  135.3424  156.3969 C.ar    1  UNL1        0.1359
     15 O         143.1438  134.0455  156.5490 O.3     1  UNL1       -0.5054
     16 C         141.2398  135.4363  155.4578 C.ar    1  UNL1        0.0662
     17 C         140.5017  136.7332  155.3057 C.ar    1  UNL1        0.1432
     18 F         139.3359  136.8270  154.3666 F       1  UNL1       -0.2041
     19 C         140.9294  137.9363  156.0928 C.ar    1  UNL1        0.0298
     20 H         143.8721  133.9869  157.1356 H       1  UNL1        0.2922
     21 C         138.1811  144.1760  164.7380 C.3     1  UNL1        0.0311
     22 C         139.4784  143.4240  164.6989 C.ar    1  UNL1       -0.0198
     23 C         140.1249  142.9770  165.9765 C.ar    1  UNL1        0.0072
     24 C         141.4222  142.2250  165.9374 C.ar    1  UNL1        0.0586
     25 CL        142.0688  141.7780  167.2149 Cl      1  UNL1       -0.0822
     26 C         142.0730  141.9200  164.6207 C.ar    1  UNL1        0.0263
     27 C         141.4264  142.3670  163.3432 C.ar    1  UNL1        0.0540
     28 C         140.1291  143.1190  163.3823 C.ar    1  UNL1        0.0107
     29 C         140.5709  139.9607  161.7690 C.2     1  UNL1        0.2485
     30 O         139.1369  140.2210  161.4146 O.2     1  UNL1       -0.2727
     31 N         140.9267  138.8023  162.6531 N.am    1  UNL1       -0.2748
     32 C         142.3608  138.5420  163.0075 C.3     1  UNL1        0.1150
     33 C         139.8483  137.9042  163.1826 C.3     1  UNL1        0.1091
     34 C         139.1198  138.2689  164.4421 C.3     1  UNL1        0.0741
     35 C         138.8005  139.6596  164.9048 C.3     1  UNL1        0.0189
     36 C         138.0661  139.5572  166.2087 C.3     1  UNL1        0.0185
     37 C         137.9314  138.1032  166.5518 C.3     1  UNL1        0.0686
     38 N         138.5827  137.3070  165.4601 N.3     1  UNL1       -0.2972
     39 H         137.8966  136.6901  165.0252 H       1  UNL1        0.1233
@<TRIPOS>BOND
     1    21    22    1
     2    22    23   ar
     3    23    24   ar
     4    24    25    1
     5    24    26   ar
     6    26    27   ar
     7    27     1    1
     8     1     2    1
     9     2     3    2
    10     3     4    1
    11     4     5   ar
    12     5     6   ar
    13     6     7    1
    14     6     8   ar
    15     8    12    1
    16    12    13   ar
    17    13    14   ar
    18    14    15    1
    19    14    16   ar
    20    16    17   ar
    21    17    18    1
    22    17    19   ar
    23     8     9   ar
    24     9    10   ar
    25    10    11    1
    26    11    29    1
    27    29    30    2
    28    29    31   am
    29    31    32    1
    30    31    33    1
    31    34    33    1
    32    34    35    1
    33    35    36    1
    34    36    37    1
    35    37    38    1
    36    27    28   ar
    37    28    22   ar
    38    11     1    1
    39    38    34    1
    40    10     4   ar
    41    19    12   ar
    42    15    20    1
    43    38    39    1
