@<TRIPOS>MOLECULE
*****
 27 30 0 0 0
SMALL
GASTEIGER

@<TRIPOS>ATOM
      1 C         140.2778  140.9856  164.6063 C.3     1  UNL1        0.1702
      2 C         141.2916  140.2478  163.7831 C.3     1  UNL1        0.0596
      3 C         140.9701  138.8869  163.2404 C.3     1  UNL1        0.0614
      4 C         140.2453  137.6130  162.9211 C.3     1  UNL1        0.0175
      5 C         138.8890  137.6793  163.5583 C.3     1  UNL1        0.0175
      6 C         138.7756  138.9941  164.2714 C.3     1  UNL1        0.0614
      7 C         138.9424  140.3625  164.8868 C.3     1  UNL1        0.0596
      8 N         140.0618  139.7404  164.0749 N.3     1  UNL1       -0.2713
      9 O         140.5992  142.3466  165.1491 O.3     1  UNL1       -0.4639
     10 C         141.9711  142.8028  169.4105 C.ar    1  UNL1        0.0725
     11 C         140.5715  143.1836  169.0283 C.ar    1  UNL1        0.0109
     12 C         140.1143  143.0315  167.6079 C.ar    1  UNL1        0.0579
     13 C         141.0565  142.4986  166.5696 C.ar    1  UNL1        0.2248
     14 N         142.4561  142.1178  166.9517 N.ar    1  UNL1       -0.2100
     15 C         142.9134  142.2699  168.3722 C.ar    1  UNL1        0.1065
     16 N         143.5115  143.9360  171.1693 N.am    1  UNL1       -0.3253
     17 C         142.4284  142.9549  170.8310 C.2     1  UNL1        0.2443
     18 O         141.8028  142.1258  171.9132 O.2     1  UNL1       -0.2703
     19 H         143.8116  144.0358  172.1016 H       1  UNL1        0.1453
     20 H         143.9221  144.4802  170.4590 H       1  UNL1        0.1453
     21 C         140.3833  141.1013  164.6177 C.3     1  UNL1        0.0991
     22 C         139.7714  142.3210  163.9948 C.ar    1  UNL1       -0.0061
     23 C         140.5437  143.1138  162.9823 C.ar    1  UNL1       -0.0029
     24 C         139.9318  144.3333  162.3594 C.ar    1  UNL1       -0.0003
     25 C         138.5476  144.7603  162.7490 C.ar    1  UNL1       -0.0000
     26 C         137.7753  143.9675  163.7615 C.ar    1  UNL1       -0.0003
     27 C         138.3873  142.7478  164.3843 C.ar    1  UNL1       -0.0029
@<TRIPOS>BOND
     1    16    17   am
     2    17    18    2
     3    17    10    1
     4    10    11   ar
     5    11    12   ar
     6    12    13   ar
     7    13     9    1
     8     1     9    1
     9     1     2    1
    10     3     2    1
    11     3     4    1
    12     4     5    1
    13     6     5    1
    14     6     7    1
    15     6     8    1
    16     8    21    1
    17    21    22    1
    18    22    23   ar
    19    23    24   ar
    20    24    25   ar
    21    25    26   ar
    22    26    27   ar
    23    13    14   ar
    24    14    15   ar
    25    15    10   ar
    26     7     1    1
    27    27    22   ar
    28     8     3    1
    29    16    19    1
    30    16    20    1
@<TRIPOS>MOLECULE
*****
 27 30 0 0 0
SMALL
GASTEIGER

@<TRIPOS>ATOM
      1 C         140.3501  140.9958  164.6003 C.3     1  UNL1        0.1702
      2 C         139.5065  140.0879  165.4453 C.3     1  UNL1        0.0596
      3 C         139.1026  138.7401  164.9251 C.3     1  UNL1        0.0614
      4 C         138.9474  137.5419  164.0362 C.3     1  UNL1        0.0175
      5 C         139.6883  137.8123  162.7603 C.3     1  UNL1        0.0175
      6 C         140.3014  139.1776  162.8606 C.3     1  UNL1        0.0614
      7 C         140.7897  140.5561  163.2353 C.3     1  UNL1        0.0596
      8 N         139.9394  139.7511  164.1986 N.3     1  UNL1       -0.2713
      9 O         140.7540  142.3436  165.1204 O.3     1  UNL1       -0.4639
     10 C         142.0399  142.8079  169.4077 C.ar    1  UNL1        0.0725
     11 C         143.0178  142.3207  168.3799 C.ar    1  UNL1        0.0109
     12 C         142.5892  142.1659  166.9509 C.ar    1  UNL1        0.0579
     13 C         141.1827  142.4984  166.5495 C.ar    1  UNL1        0.2248
     14 N         140.2048  142.9856  167.5772 N.ar    1  UNL1       -0.2100
     15 C         140.6334  143.1404  169.0063 C.ar    1  UNL1        0.1065
     16 N         143.5468  143.9423  171.1945 N.am    1  UNL1       -0.3253
     17 C         142.4686  142.9627  170.8368 C.2     1  UNL1        0.2443
     18 O         141.8191  142.1379  171.9081 O.2     1  UNL1       -0.2703
     19 H         143.8281  144.0438  172.1325 H       1  UNL1        0.1453
     20 H         143.9731  144.4836  170.4914 H       1  UNL1        0.1453
     21 C         140.3433  141.0988  164.7187 C.3     1  UNL1        0.0991
     22 C         139.7845  142.3424  164.0933 C.ar    1  UNL1       -0.0061
     23 C         140.6652  143.2217  163.2560 C.ar    1  UNL1       -0.0029
     24 C         140.1065  144.4653  162.6306 C.ar    1  UNL1       -0.0003
     25 C         138.6669  144.8296  162.8424 C.ar    1  UNL1       -0.0000
     26 C         137.7860  143.9502  163.6798 C.ar    1  UNL1       -0.0003
     27 C         138.3450  142.7066  164.3051 C.ar    1  UNL1       -0.0029
@<TRIPOS>BOND
     1    16    17   am
     2    17    18    2
     3    17    10    1
     4    10    11   ar
     5    11    12   ar
     6    12    13   ar
     7    13     9    1
     8     1     9    1
     9     1     2    1
    10     3     2    1
    11     3     4    1
    12     4     5    1
    13     6     5    1
    14     6     7    1
    15     6     8    1
    16     8    21    1
    17    21    22    1
    18    22    23   ar
    19    23    24   ar
    20    24    25   ar
    21    25    26   ar
    22    26    27   ar
    23    13    14   ar
    24    14    15   ar
    25    15    10   ar
    26     7     1    1
    27    27    22   ar
    28     8     3    1
    29    16    19    1
    30    16    20    1
@<TRIPOS>MOLECULE
*****
 27 30 0 0 0
SMALL
GASTEIGER

@<TRIPOS>ATOM
      1 C         139.5659  140.6835  164.5322 C.3     1  UNL1        0.1702
      2 C         140.8952  140.0805  164.1869 C.3     1  UNL1        0.0596
      3 C         140.9661  138.8980  163.2669 C.3     1  UNL1        0.0614
      4 C         140.5719  137.7775  162.3508 C.3     1  UNL1        0.0175
      5 C         139.0778  137.7910  162.2184 C.3     1  UNL1        0.0175
      6 C         138.5486  138.9199  163.0525 C.3     1  UNL1        0.0614
      7 C         138.3074  140.1039  163.9574 C.3     1  UNL1        0.0596
      8 N         139.7157  139.6040  163.7005 N.3     1  UNL1       -0.2713
      9 O         139.4950  141.8661  165.4524 O.3     1  UNL1       -0.4639
     10 C         140.8183  141.4674  169.7348 C.ar    1  UNL1        0.0725
     11 C         141.1988  142.6827  168.9423 C.ar    1  UNL1        0.0109
     12 C         140.7577  142.8156  167.5149 C.ar    1  UNL1        0.0579
     13 C         139.9361  141.7332  166.8799 C.ar    1  UNL1        0.2248
     14 N         139.5556  140.5178  167.6723 N.ar    1  UNL1       -0.2100
     15 C         139.9967  140.3849  169.0998 C.ar    1  UNL1        0.1065
     16 N         142.4243  140.4551  171.5086 N.am    1  UNL1       -0.3253
     17 C         141.2595  141.3345  171.1623 C.2     1  UNL1        0.2443
     18 O         140.5358  142.0809  172.2435 O.2     1  UNL1       -0.2703
     19 H         142.7138  140.3679  172.4455 H       1  UNL1        0.1453
     20 H         142.8993  139.9652  170.7990 H       1  UNL1        0.1453
     21 C         139.6448  140.7866  164.6206 C.3     1  UNL1        0.0991
     22 C         139.3632  142.1519  164.0669 C.ar    1  UNL1       -0.0061
     23 C         137.9862  142.7365  164.1769 C.ar    1  UNL1       -0.0029
     24 C         137.7046  144.1017  163.6232 C.ar    1  UNL1       -0.0003
     25 C         138.8000  144.8825  162.9595 C.ar    1  UNL1       -0.0000
     26 C         140.1770  144.2979  162.8494 C.ar    1  UNL1       -0.0003
     27 C         140.4586  142.9326  163.4031 C.ar    1  UNL1       -0.0029
@<TRIPOS>BOND
     1    16    17   am
     2    17    18    2
     3    17    10    1
     4    10    11   ar
     5    11    12   ar
     6    12    13   ar
     7    13     9    1
     8     1     9    1
     9     1     2    1
    10     3     2    1
    11     3     4    1
    12     4     5    1
    13     6     5    1
    14     6     7    1
    15     6     8    1
    16     8    21    1
    17    21    22    1
    18    22    23   ar
    19    23    24   ar
    20    24    25   ar
    21    25    26   ar
    22    26    27   ar
    23    13    14   ar
    24    14    15   ar
    25    15    10   ar
    26     7     1    1
    27    27    22   ar
    28     8     3    1
    29    16    19    1
    30    16    20    1
@<TRIPOS>MOLECULE
*****
 27 30 0 0 0
SMALL
GASTEIGER

@<TRIPOS>ATOM
      1 C         139.7030  140.3922  164.3456 C.3     1  UNL1        0.1702
      2 C         138.5601  139.4394  164.1562 C.3     1  UNL1        0.0596
      3 C         138.4375  138.6592  162.8809 C.3     1  UNL1        0.0614
      4 C         138.7069  138.1179  161.5082 C.3     1  UNL1        0.0175
      5 C         139.9559  138.7677  160.9906 C.3     1  UNL1        0.0175
      6 C         140.4584  139.7106  162.0435 C.3     1  UNL1        0.0614
      7 C         140.7233  140.5648  163.2597 C.3     1  UNL1        0.0596
      8 N         139.5200  139.6435  163.2118 N.3     1  UNL1       -0.2713
      9 O         139.8255  141.1725  165.6209 O.3     1  UNL1       -0.4639
     10 C         142.1801  139.4932  169.0684 C.ar    1  UNL1        0.0725
     11 C         140.7583  139.9260  169.2713 C.ar    1  UNL1        0.0109
     12 C         139.9735  140.4858  168.1222 C.ar    1  UNL1        0.0579
     13 C         140.6104  140.6127  166.7701 C.ar    1  UNL1        0.2248
     14 N         142.0321  140.1799  166.5671 N.ar    1  UNL1       -0.2100
     15 C         142.8170  139.6202  167.7163 C.ar    1  UNL1        0.1065
     16 N         143.4945  139.8493  171.2811 N.am    1  UNL1       -0.3253
     17 C         142.9650  138.9334  170.2177 C.2     1  UNL1        0.2443
     18 O         143.2203  137.4578  170.3035 O.2     1  UNL1       -0.2703
     19 H         144.0096  139.4819  172.0353 H       1  UNL1        0.1453
     20 H         143.3269  140.8178  171.2248 H       1  UNL1        0.1453
     21 C         139.6425  140.4237  164.4871 C.3     1  UNL1        0.0991
     22 C         139.3952  141.9032  164.4879 C.ar    1  UNL1       -0.0061
     23 C         140.5506  142.8567  164.4113 C.ar    1  UNL1       -0.0029
     24 C         140.3033  144.3361  164.4121 C.ar    1  UNL1       -0.0003
     25 C         138.9007  144.8621  164.4895 C.ar    1  UNL1       -0.0000
     26 C         137.7453  143.9085  164.5662 C.ar    1  UNL1       -0.0003
     27 C         137.9926  142.4290  164.5653 C.ar    1  UNL1       -0.0029
@<TRIPOS>BOND
     1    16    17   am
     2    17    18    2
     3    17    10    1
     4    10    11   ar
     5    11    12   ar
     6    12    13   ar
     7    13     9    1
     8     1     9    1
     9     1     2    1
    10     3     2    1
    11     3     4    1
    12     4     5    1
    13     6     5    1
    14     6     7    1
    15     6     8    1
    16     8    21    1
    17    21    22    1
    18    22    23   ar
    19    23    24   ar
    20    24    25   ar
    21    25    26   ar
    22    26    27   ar
    23    13    14   ar
    24    14    15   ar
    25    15    10   ar
    26     7     1    1
    27    27    22   ar
    28     8     3    1
    29    16    19    1
    30    16    20    1
@<TRIPOS>MOLECULE
*****
 27 30 0 0 0
SMALL
GASTEIGER

@<TRIPOS>ATOM
      1 C         139.3689  141.3998  164.7935 C.3     1  UNL1        0.1702
      2 C         140.2741  142.5956  164.7696 C.3     1  UNL1        0.0596
      3 C         139.8218  143.8655  164.1118 C.3     1  UNL1        0.0614
      4 C         138.9881  144.8732  163.3773 C.3     1  UNL1        0.0175
      5 C         137.6818  144.2256  163.0251 C.3     1  UNL1        0.0175
      6 C         137.7081  142.8176  163.5419 C.3     1  UNL1        0.0614
      7 C         138.0114  141.4739  164.1596 C.3     1  UNL1        0.0596
      8 N         139.0308  142.5951  164.2135 N.3     1  UNL1       -0.2713
      9 O         139.8211  140.1298  165.4514 O.3     1  UNL1       -0.4639
     10 C         141.7182  140.2604  169.5298 C.ar    1  UNL1        0.0725
     11 C         140.2256  140.1888  169.3988 C.ar    1  UNL1        0.0109
     12 C         139.5933  140.1453  168.0394 C.ar    1  UNL1        0.0579
     13 C         140.4534  140.1733  166.8109 C.ar    1  UNL1        0.2248
     14 N         141.9459  140.2449  166.9418 N.ar    1  UNL1       -0.2100
     15 C         142.5783  140.2885  168.3013 C.ar    1  UNL1        0.1065
     16 N         143.6202  139.5491  171.1504 N.am    1  UNL1       -0.3253
     17 C         142.3505  140.3040  170.8893 C.2     1  UNL1        0.2443
     18 O         141.7133  141.1023  171.9877 O.2     1  UNL1       -0.2703
     19 H         144.0352  139.5777  172.0427 H       1  UNL1        0.1453
     20 H         144.0385  139.0251  170.4296 H       1  UNL1        0.1453
     21 C         139.4830  141.3252  164.8714 C.3     1  UNL1        0.0991
     22 C         139.7049  140.0915  164.0475 C.ar    1  UNL1       -0.0061
     23 C         138.7458  138.9423  164.1445 C.ar    1  UNL1       -0.0029
     24 C         138.9677  137.7087  163.3206 C.ar    1  UNL1       -0.0003
     25 C         140.1487  137.6242  162.3997 C.ar    1  UNL1       -0.0000
     26 C         141.1079  138.7735  162.3027 C.ar    1  UNL1       -0.0003
     27 C         140.8859  140.0071  163.1266 C.ar    1  UNL1       -0.0029
@<TRIPOS>BOND
     1    16    17   am
     2    17    18    2
     3    17    10    1
     4    10    11   ar
     5    11    12   ar
     6    12    13   ar
     7    13     9    1
     8     1     9    1
     9     1     2    1
    10     3     2    1
    11     3     4    1
    12     4     5    1
    13     6     5    1
    14     6     7    1
    15     6     8    1
    16     8    21    1
    17    21    22    1
    18    22    23   ar
    19    23    24   ar
    20    24    25   ar
    21    25    26   ar
    22    26    27   ar
    23    13    14   ar
    24    14    15   ar
    25    15    10   ar
    26     7     1    1
    27    27    22   ar
    28     8     3    1
    29    16    19    1
    30    16    20    1
@<TRIPOS>MOLECULE
*****
 27 30 0 0 0
SMALL
GASTEIGER

@<TRIPOS>ATOM
      1 C         140.6021  141.4529  166.9967 C.3     1  UNL1        0.1702
      2 C         142.0131  141.9469  166.8743 C.3     1  UNL1        0.0596
      3 C         142.8984  141.9952  168.0841 C.3     1  UNL1        0.0614
      4 C         143.3950  141.8736  169.4943 C.3     1  UNL1        0.0175
      5 C         142.2769  141.3310  170.3342 C.3     1  UNL1        0.0175
      6 C         141.0893  141.1173  169.4431 C.3     1  UNL1        0.0614
      7 C         140.0765  141.0071  168.3291 C.3     1  UNL1        0.0596
      8 N         141.4735  141.5279  168.0525 N.3     1  UNL1       -0.2713
      9 O         139.7166  141.4045  165.7868 O.3     1  UNL1       -0.4639
     10 C         140.1389  144.5165  162.5640 C.ar    1  UNL1        0.0725
     11 C         139.2374  144.7682  163.7361 C.ar    1  UNL1        0.0109
     12 C         139.0966  143.7309  164.8104 C.ar    1  UNL1        0.0579
     13 C         139.8574  142.4419  164.7125 C.ar    1  UNL1        0.2248
     14 N         140.7589  142.1901  163.5405 N.ar    1  UNL1       -0.2100
     15 C         140.8996  143.2275  162.4661 C.ar    1  UNL1        0.1065
     16 N         141.4910  145.5578  160.6049 N.am    1  UNL1       -0.3253
     17 C         140.2796  145.5538  161.4896 C.2     1  UNL1        0.2443
     18 O         139.2091  146.5872  161.3000 O.2     1  UNL1       -0.2703
     19 H         141.5833  146.2386  159.8998 H       1  UNL1        0.1453
     20 H         142.1936  144.8795  160.7294 H       1  UNL1        0.1453
     21 C         140.5881  141.4796  166.8426 C.3     1  UNL1        0.0991
     22 C         140.0898  140.1609  166.3300 C.ar    1  UNL1       -0.0061
     23 C         141.0108  139.2570  165.5654 C.ar    1  UNL1       -0.0029
     24 C         140.5125  137.9383  165.0528 C.ar    1  UNL1       -0.0003
     25 C         139.0932  137.5235  165.3049 C.ar    1  UNL1       -0.0000
     26 C         138.1722  138.4274  166.0696 C.ar    1  UNL1       -0.0003
     27 C         138.6705  139.7461  166.5821 C.ar    1  UNL1       -0.0029
@<TRIPOS>BOND
     1    16    17   am
     2    17    18    2
     3    17    10    1
     4    10    11   ar
     5    11    12   ar
     6    12    13   ar
     7    13     9    1
     8     1     9    1
     9     1     2    1
    10     3     2    1
    11     3     4    1
    12     4     5    1
    13     6     5    1
    14     6     7    1
    15     6     8    1
    16     8    21    1
    17    21    22    1
    18    22    23   ar
    19    23    24   ar
    20    24    25   ar
    21    25    26   ar
    22    26    27   ar
    23    13    14   ar
    24    14    15   ar
    25    15    10   ar
    26     7     1    1
    27    27    22   ar
    28     8     3    1
    29    16    19    1
    30    16    20    1
@<TRIPOS>MOLECULE
*****
 27 30 0 0 0
SMALL
GASTEIGER

@<TRIPOS>ATOM
      1 C         141.7314  143.1933  164.6627 C.3     1  UNL1        0.1702
      2 C         140.2792  142.9315  164.3936 C.3     1  UNL1        0.0596
      3 C         139.4976  143.8679  163.5205 C.3     1  UNL1        0.0614
      4 C         139.1330  145.0188  162.6303 C.3     1  UNL1        0.0175
      5 C         140.3587  145.8616  162.4370 C.3     1  UNL1        0.0175
      6 C         141.4808  145.2315  163.2076 C.3     1  UNL1        0.0614
      7 C         142.4021  144.3913  164.0587 C.3     1  UNL1        0.0596
      8 N         140.9486  143.9993  163.8773 N.3     1  UNL1       -0.2713
      9 O         142.5131  142.2569  165.5359 O.3     1  UNL1       -0.4639
     10 C         141.0312  141.2693  169.6685 C.ar    1  UNL1        0.0725
     11 C         142.2731  142.0922  169.4938 C.ar    1  UNL1        0.0109
     12 C         142.7670  142.4214  168.1163 C.ar    1  UNL1        0.0579
     13 C         142.0191  141.9277  166.9135 C.ar    1  UNL1        0.2248
     14 N         140.7773  141.1048  167.0881 N.ar    1  UNL1       -0.2100
     15 C         140.2833  140.7756  168.4657 C.ar    1  UNL1        0.1065
     16 N         139.9913  139.5743  171.3406 N.am    1  UNL1       -0.3253
     17 C         140.5373  140.9400  171.0461 C.2     1  UNL1        0.2443
     18 O         140.5893  141.9765  172.1291 O.2     1  UNL1       -0.2703
     19 H         139.6671  139.3583  172.2447 H       1  UNL1        0.1453
     20 H         139.9571  138.8940  170.6298 H       1  UNL1        0.1453
     21 C         141.7302  143.0630  164.7504 C.3     1  UNL1        0.0991
     22 C         142.8958  142.3070  164.1848 C.ar    1  UNL1       -0.0061
     23 C         142.6610  141.1335  163.2805 C.ar    1  UNL1       -0.0029
     24 C         143.8265  140.3775  162.7150 C.ar    1  UNL1       -0.0003
     25 C         145.2269  140.7950  163.0537 C.ar    1  UNL1       -0.0000
     26 C         145.4617  141.9685  163.9581 C.ar    1  UNL1       -0.0003
     27 C         144.2960  142.7244  164.5236 C.ar    1  UNL1       -0.0029
@<TRIPOS>BOND
     1    16    17   am
     2    17    18    2
     3    17    10    1
     4    10    11   ar
     5    11    12   ar
     6    12    13   ar
     7    13     9    1
     8     1     9    1
     9     1     2    1
    10     3     2    1
    11     3     4    1
    12     4     5    1
    13     6     5    1
    14     6     7    1
    15     6     8    1
    16     8    21    1
    17    21    22    1
    18    22    23   ar
    19    23    24   ar
    20    24    25   ar
    21    25    26   ar
    22    26    27   ar
    23    13    14   ar
    24    14    15   ar
    25    15    10   ar
    26     7     1    1
    27    27    22   ar
    28     8     3    1
    29    16    19    1
    30    16    20    1
@<TRIPOS>MOLECULE
*****
 27 30 0 0 0
SMALL
GASTEIGER

@<TRIPOS>ATOM
      1 C         141.2850  142.6625  164.4036 C.3     1  UNL1        0.1702
      2 C         141.5019  144.1447  164.3256 C.3     1  UNL1        0.0596
      3 C         142.7157  144.6895  163.6328 C.3     1  UNL1        0.0614
      4 C         144.0092  144.7761  162.8782 C.3     1  UNL1        0.0175
      5 C         144.4594  143.3792  162.5683 C.3     1  UNL1        0.0175
      6 C         143.4441  142.4293  163.1314 C.3     1  UNL1        0.0614
      7 C         142.2817  141.7252  163.7888 C.3     1  UNL1        0.0596
      8 N         142.3665  143.2392  163.7893 N.3     1  UNL1       -0.2713
      9 O         140.0711  142.1176  165.0963 O.3     1  UNL1       -0.4639
     10 C         140.2232  141.1764  169.4941 C.ar    1  UNL1        0.0725
     11 C         139.8958  140.0957  168.5067 C.ar    1  UNL1        0.0109
     12 C         139.8452  140.4095  167.0409 C.ar    1  UNL1        0.0579
     13 C         140.1218  141.8039  166.5623 C.ar    1  UNL1        0.2248
     14 N         140.4492  142.8846  167.5496 N.ar    1  UNL1       -0.2100
     15 C         140.4999  142.5708  169.0156 C.ar    1  UNL1        0.1065
     16 N         139.9516  139.4795  171.4427 N.am    1  UNL1       -0.3253
     17 C         140.2739  140.8627  170.9601 C.2     1  UNL1        0.2443
     18 O         140.6469  141.9321  171.9435 O.2     1  UNL1       -0.2703
     19 H         139.9848  139.2736  172.4048 H       1  UNL1        0.1453
     20 H         139.7067  138.7775  170.7972 H       1  UNL1        0.1453
     21 C         141.1527  142.6943  164.4821 C.3     1  UNL1        0.0991
     22 C         140.0024  142.1674  163.6763 C.ar    1  UNL1       -0.0061
     23 C         139.9715  140.7245  163.2678 C.ar    1  UNL1       -0.0029
     24 C         138.8213  140.1976  162.4621 C.ar    1  UNL1       -0.0003
     25 C         137.7019  141.1137  162.0648 C.ar    1  UNL1       -0.0000
     26 C         137.7328  142.5567  162.4733 C.ar    1  UNL1       -0.0003
     27 C         138.8832  143.0835  163.2790 C.ar    1  UNL1       -0.0029
@<TRIPOS>BOND
     1    16    17   am
     2    17    18    2
     3    17    10    1
     4    10    11   ar
     5    11    12   ar
     6    12    13   ar
     7    13     9    1
     8     1     9    1
     9     1     2    1
    10     3     2    1
    11     3     4    1
    12     4     5    1
    13     6     5    1
    14     6     7    1
    15     6     8    1
    16     8    21    1
    17    21    22    1
    18    22    23   ar
    19    23    24   ar
    20    24    25   ar
    21    25    26   ar
    22    26    27   ar
    23    13    14   ar
    24    14    15   ar
    25    15    10   ar
    26     7     1    1
    27    27    22   ar
    28     8     3    1
    29    16    19    1
    30    16    20    1
@<TRIPOS>MOLECULE
*****
 27 30 0 0 0
SMALL
GASTEIGER

@<TRIPOS>ATOM
      1 C         141.6629  141.9870  164.3601 C.3     1  UNL1        0.1702
      2 C         142.8878  142.7626  164.7447 C.3     1  UNL1        0.0596
      3 C         144.1576  142.5946  163.9642 C.3     1  UNL1        0.0614
      4 C         145.1548  142.1282  162.9453 C.3     1  UNL1        0.0175
      5 C         144.4735  141.1356  162.0506 C.3     1  UNL1        0.0175
      6 C         143.0553  140.9886  162.5164 C.3     1  UNL1        0.0614
      7 C         141.7078  141.0434  163.1949 C.3     1  UNL1        0.0596
      8 N         142.8600  141.8903  163.6991 N.3     1  UNL1       -0.2713
      9 O         140.3929  142.1550  165.1407 O.3     1  UNL1       -0.4639
     10 C         140.2923  141.1303  169.5212 C.ar    1  UNL1        0.0725
     11 C         139.9710  140.0815  168.4981 C.ar    1  UNL1        0.0109
     12 C         140.0046  140.4231  167.0380 C.ar    1  UNL1        0.0579
     13 C         140.3594  141.8134  166.6009 C.ar    1  UNL1        0.2248
     14 N         140.6807  142.8622  167.6239 N.ar    1  UNL1       -0.2100
     15 C         140.6472  142.5206  169.0842 C.ar    1  UNL1        0.1065
     16 N         139.8915  139.4018  171.4191 N.am    1  UNL1       -0.3253
     17 C         140.2588  140.7887  170.9815 C.2     1  UNL1        0.2443
     18 O         140.5926  141.8341  172.0041 O.2     1  UNL1       -0.2703
     19 H         139.8694  139.1777  172.3775 H       1  UNL1        0.1453
     20 H         139.6724  138.7157  170.7479 H       1  UNL1        0.1453
     21 C         141.5902  142.0583  164.4796 C.3     1  UNL1        0.0991
     22 C         140.4496  142.8394  163.8973 C.ar    1  UNL1       -0.0061
     23 C         139.2887  142.1210  163.2758 C.ar    1  UNL1       -0.0029
     24 C         138.1482  142.9020  162.6936 C.ar    1  UNL1       -0.0003
     25 C         138.1685  144.4014  162.7327 C.ar    1  UNL1       -0.0000
     26 C         139.3294  145.1197  163.3543 C.ar    1  UNL1       -0.0003
     27 C         140.4700  144.3386  163.9366 C.ar    1  UNL1       -0.0029
@<TRIPOS>BOND
     1    16    17   am
     2    17    18    2
     3    17    10    1
     4    10    11   ar
     5    11    12   ar
     6    12    13   ar
     7    13     9    1
     8     1     9    1
     9     1     2    1
    10     3     2    1
    11     3     4    1
    12     4     5    1
    13     6     5    1
    14     6     7    1
    15     6     8    1
    16     8    21    1
    17    21    22    1
    18    22    23   ar
    19    23    24   ar
    20    24    25   ar
    21    25    26   ar
    22    26    27   ar
    23    13    14   ar
    24    14    15   ar
    25    15    10   ar
    26     7     1    1
    27    27    22   ar
    28     8     3    1
    29    16    19    1
    30    16    20    1
