@<TRIPOS>MOLECULE
*****
 38 42 0 0 0
SMALL
GASTEIGER

@<TRIPOS>ATOM
      1 C         138.5901  139.9439  159.6049 C.3     1  UNL1        0.0118
      2 C         139.8989  139.2317  159.7779 C.3     1  UNL1        0.0179
      3 C         140.1497  138.4121  161.0088 C.3     1  UNL1        0.0724
      4 N         139.0917  138.3045  162.0667 N.3     1  UNL1       -0.2689
      5 C         137.7829  139.0167  161.8937 C.3     1  UNL1        0.0724
      6 C         137.5322  139.8363  160.6628 C.3     1  UNL1        0.0179
      7 C         138.3393  140.7636  158.3739 C.3     1  UNL1        0.0854
      8 O         139.9733  141.0197  156.3704 O.2     1  UNL1       -0.2749
      9 C         139.4746  141.4823  157.7072 C.2     1  UNL1        0.2256
     10 N         140.1112  142.6637  158.3775 N.am    1  UNL1       -0.2790
     11 C         141.2465  143.3824  157.7108 C.3     1  UNL1        0.0934
     12 C         141.8831  144.5637  158.3810 C.3     1  UNL1        0.0221
     13 C         141.3844  145.0263  159.7179 C.3     1  UNL1        0.0126
     14 C         140.2491  144.3076  160.3846 C.3     1  UNL1        0.0965
     15 C         139.6125  143.1263  159.7144 C.3     1  UNL1        0.1024
     16 C         139.7503  144.7702  161.7215 C.2     1  UNL1        0.2268
     17 O         138.7946  145.9231  161.8076 O.2     1  UNL1       -0.2748
     18 N         140.2073  144.0799  162.9723 N.am    1  UNL1       -0.2795
     19 C         139.7965  144.4287  164.3722 C.3     1  UNL1        0.0935
     20 C         140.4906  143.4839  165.3080 C.3     1  UNL1        0.0233
     21 C         141.3303  142.5512  164.4864 C.3     1  UNL1        0.0233
     22 C         141.1552  142.9195  163.0429 C.3     1  UNL1        0.0935
     23 C         139.3425  137.4848  163.2977 C.3     1  UNL1        0.1007
     24 C         139.3259  138.1362  164.6488 C.ar    1  UNL1        0.0129
     25 C         138.2532  137.9865  165.6865 C.ar    1  UNL1        0.0176
     26 C         138.6433  138.8093  166.8784 C.ar    1  UNL1        0.0799
     27 N         139.9571  139.4676  166.5773 N.ar    1  UNL1       -0.3038
     28 C         140.3789  139.0516  165.1993 C.ar    1  UNL1        0.0772
     29 C         140.7158  140.3815  167.4934 C.ar    1  UNL1        0.0640
     30 C         142.2128  140.3088  167.5542 C.ar    1  UNL1        0.0175
     31 C         142.9715  141.2227  168.4702 C.ar    1  UNL1        0.0053
     32 C         142.2333  142.2092  169.3255 C.ar    1  UNL1        0.0715
     33 C         140.7363  142.2820  169.2648 C.ar    1  UNL1        0.0053
     34 C         139.9776  141.3681  168.3487 C.ar    1  UNL1        0.0175
     35 C         142.9920  143.1231  170.2416 C.3     1  UNL1        0.4186
     36 F         143.7508  144.0369  171.1576 F       1  UNL1       -0.1659
     37 F         141.7779  143.9932  170.3791 F       1  UNL1       -0.1659
     38 F         144.2062  142.2529  170.1040 F       1  UNL1       -0.1659
@<TRIPOS>BOND
     1     8     9    2
     2     9     7    1
     3     7     1    1
     4     1     2    1
     5     2     3    1
     6     3     4    1
     7     4    23    1
     8    23    24    1
     9    24    25   ar
    10    25    26   ar
    11    26    27   ar
    12    27    29    1
    13    29    30   ar
    14    30    31   ar
    15    31    32   ar
    16    32    35    1
    17    35    36    1
    18    35    37    1
    19    35    38    1
    20    32    33   ar
    21    33    34   ar
    22    27    28   ar
    23     4     5    1
    24     5     6    1
    25     9    10   am
    26    10    11    1
    27    11    12    1
    28    12    13    1
    29    13    14    1
    30    14    16    1
    31    16    17    2
    32    16    18   am
    33    18    19    1
    34    19    20    1
    35    20    21    1
    36    21    22    1
    37    14    15    1
    38     6     1    1
    39    15    10    1
    40    28    24   ar
    41    22    18    1
    42    34    29   ar
@<TRIPOS>MOLECULE
*****
 38 42 0 0 0
SMALL
GASTEIGER

@<TRIPOS>ATOM
      1 C         138.4516  139.9642  159.4572 C.3     1  UNL1        0.0118
      2 C         139.7350  139.2077  159.6313 C.3     1  UNL1        0.0179
      3 C         139.9777  138.4210  160.8852 C.3     1  UNL1        0.0724
      4 N         138.9370  138.3909  161.9650 N.3     1  UNL1       -0.2689
      5 C         137.6535  139.1475  161.7909 C.3     1  UNL1        0.0724
      6 C         137.4108  139.9341  160.5370 C.3     1  UNL1        0.0179
      7 C         138.2088  140.7509  158.2033 C.3     1  UNL1        0.0854
      8 O         139.5928  140.3160  156.0481 O.2     1  UNL1       -0.2749
      9 C         139.3568  141.1016  157.3039 C.2     1  UNL1        0.2256
     10 N         140.2688  142.2380  157.6602 N.am    1  UNL1       -0.2790
     11 C         141.4168  142.5887  156.7608 C.3     1  UNL1        0.0934
     12 C         142.3288  143.7250  157.1172 C.3     1  UNL1        0.0221
     13 C         142.0928  144.5107  158.3730 C.3     1  UNL1        0.0126
     14 C         140.9447  144.1599  159.2725 C.3     1  UNL1        0.0965
     15 C         140.0328  143.0236  158.9161 C.3     1  UNL1        0.1024
     16 C         140.7087  144.9456  160.5283 C.2     1  UNL1        0.2268
     17 O         139.6079  145.9631  160.5807 O.2     1  UNL1       -0.2748
     18 N         141.5735  144.7137  161.7317 N.am    1  UNL1       -0.2795
     19 C         141.4574  145.4196  163.0501 C.3     1  UNL1        0.0935
     20 C         142.5184  144.8774  163.9613 C.3     1  UNL1        0.0233
     21 C         143.2902  143.8363  163.2060 C.3     1  UNL1        0.0233
     22 C         142.7063  143.7352  161.8280 C.3     1  UNL1        0.0935
     23 C         139.1798  137.6042  163.2189 C.3     1  UNL1        0.1007
     24 C         140.2977  137.9898  164.1416 C.ar    1  UNL1        0.0129
     25 C         141.6359  137.3185  164.2340 C.ar    1  UNL1        0.0176
     26 C         142.4391  138.0282  165.2834 C.ar    1  UNL1        0.0799
     27 N         141.5973  139.1382  165.8395 N.ar    1  UNL1       -0.3038
     28 C         140.2739  139.1145  165.1338 C.ar    1  UNL1        0.0772
     29 C         142.0070  140.1026  166.9129 C.ar    1  UNL1        0.0640
     30 C         141.6389  139.8349  168.3421 C.ar    1  UNL1        0.0175
     31 C         142.0486  140.7993  169.4154 C.ar    1  UNL1        0.0053
     32 C         142.8264  142.0314  169.0595 C.ar    1  UNL1        0.0715
     33 C         143.1946  142.2992  167.6303 C.ar    1  UNL1        0.0053
     34 C         142.7849  141.3348  166.5570 C.ar    1  UNL1        0.0175
     35 C         143.2362  142.9958  170.1329 C.3     1  UNL1        0.4186
     36 F         143.6460  143.9601  171.2062 F       1  UNL1       -0.1659
     37 F         141.8133  143.4512  170.2668 F       1  UNL1       -0.1659
     38 F         144.6591  142.5403  169.9990 F       1  UNL1       -0.1659
@<TRIPOS>BOND
     1     8     9    2
     2     9     7    1
     3     7     1    1
     4     1     2    1
     5     2     3    1
     6     3     4    1
     7     4    23    1
     8    23    24    1
     9    24    25   ar
    10    25    26   ar
    11    26    27   ar
    12    27    29    1
    13    29    30   ar
    14    30    31   ar
    15    31    32   ar
    16    32    35    1
    17    35    36    1
    18    35    37    1
    19    35    38    1
    20    32    33   ar
    21    33    34   ar
    22    27    28   ar
    23     4     5    1
    24     5     6    1
    25     9    10   am
    26    10    11    1
    27    11    12    1
    28    12    13    1
    29    13    14    1
    30    14    16    1
    31    16    17    2
    32    16    18   am
    33    18    19    1
    34    19    20    1
    35    20    21    1
    36    21    22    1
    37    14    15    1
    38     6     1    1
    39    15    10    1
    40    28    24   ar
    41    22    18    1
    42    34    29   ar
@<TRIPOS>MOLECULE
*****
 38 42 0 0 0
SMALL
GASTEIGER

@<TRIPOS>ATOM
      1 C         141.5113  139.1127  159.4994 C.3     1  UNL1        0.0118
      2 C         140.0360  138.9346  159.7031 C.3     1  UNL1        0.0179
      3 C         139.5245  138.2896  160.9570 C.3     1  UNL1        0.0724
      4 N         140.4884  137.8227  162.0072 N.3     1  UNL1       -0.2689
      5 C         141.9638  138.0008  161.8035 C.3     1  UNL1        0.0724
      6 C         142.4752  138.6458  160.5496 C.3     1  UNL1        0.0179
      7 C         142.0228  139.7578  158.2454 C.3     1  UNL1        0.0854
      8 O         140.6306  140.6228  156.2297 O.2     1  UNL1       -0.2749
      9 C         141.2309  140.8476  157.5858 C.2     1  UNL1        0.2256
     10 N         141.0392  142.1622  158.2823 N.am    1  UNL1       -0.2790
     11 C         140.2473  143.2520  157.6227 C.3     1  UNL1        0.0934
     12 C         140.0557  144.5665  158.3192 C.3     1  UNL1        0.0221
     13 C         140.6560  144.7913  159.6754 C.3     1  UNL1        0.0126
     14 C         141.4479  143.7015  160.3350 C.3     1  UNL1        0.0965
     15 C         141.6395  142.3870  159.6385 C.3     1  UNL1        0.1024
     16 C         142.0482  143.9263  161.6911 C.2     1  UNL1        0.2268
     17 O         143.4724  144.3804  161.8150 O.2     1  UNL1       -0.2748
     18 N         141.2243  143.6969  162.9234 N.am    1  UNL1       -0.2795
     19 C         141.6857  143.8792  164.3390 C.3     1  UNL1        0.0935
     20 C         140.5409  143.5400  165.2470 C.3     1  UNL1        0.0233
     21 C         139.3720  143.1480  164.3925 C.3     1  UNL1        0.0233
     22 C         139.7944  143.2450  162.9565 C.3     1  UNL1        0.0935
     23 C         139.9769  137.1776  163.2612 C.3     1  UNL1        0.1007
     24 C         139.7930  137.9963  164.5045 C.ar    1  UNL1        0.0129
     25 C         138.5222  138.1343  165.2893 C.ar    1  UNL1        0.0176
     26 C         138.7914  139.0441  166.4512 C.ar    1  UNL1        0.0799
     27 N         140.2286  139.4683  166.3844 N.ar    1  UNL1       -0.3038
     28 C         140.8476  138.8208  165.1813 C.ar    1  UNL1        0.0772
     29 C         140.9246  140.3800  167.3511 C.ar    1  UNL1        0.0640
     30 C         140.3194  140.6491  168.6969 C.ar    1  UNL1        0.0175
     31 C         141.0154  141.5608  169.6635 C.ar    1  UNL1        0.0053
     32 C         142.3165  142.2035  169.2843 C.ar    1  UNL1        0.0715
     33 C         142.9218  141.9345  167.9385 C.ar    1  UNL1        0.0053
     34 C         142.2258  141.0228  166.9719 C.ar    1  UNL1        0.0175
     35 C         143.0125  143.1152  170.2510 C.3     1  UNL1        0.4186
     36 F         143.7085  144.0268  171.2176 F       1  UNL1       -0.1659
     37 F         141.7851  143.9743  170.3243 F       1  UNL1       -0.1659
     38 F         144.2399  142.2560  170.1777 F       1  UNL1       -0.1659
@<TRIPOS>BOND
     1     8     9    2
     2     9     7    1
     3     7     1    1
     4     1     2    1
     5     2     3    1
     6     3     4    1
     7     4    23    1
     8    23    24    1
     9    24    25   ar
    10    25    26   ar
    11    26    27   ar
    12    27    29    1
    13    29    30   ar
    14    30    31   ar
    15    31    32   ar
    16    32    35    1
    17    35    36    1
    18    35    37    1
    19    35    38    1
    20    32    33   ar
    21    33    34   ar
    22    27    28   ar
    23     4     5    1
    24     5     6    1
    25     9    10   am
    26    10    11    1
    27    11    12    1
    28    12    13    1
    29    13    14    1
    30    14    16    1
    31    16    17    2
    32    16    18   am
    33    18    19    1
    34    19    20    1
    35    20    21    1
    36    21    22    1
    37    14    15    1
    38     6     1    1
    39    15    10    1
    40    28    24   ar
    41    22    18    1
    42    34    29   ar
@<TRIPOS>MOLECULE
*****
 38 42 0 0 0
SMALL
GASTEIGER

@<TRIPOS>ATOM
      1 C         139.2967  138.8942  162.4677 C.3     1  UNL1        0.0118
      2 C         140.5018  138.0202  162.6517 C.3     1  UNL1        0.0179
      3 C         141.5467  137.9478  161.5779 C.3     1  UNL1        0.0724
      4 N         141.3865  138.7494  160.3202 N.3     1  UNL1       -0.2689
      5 C         140.1814  139.6234  160.1363 C.3     1  UNL1        0.0724
      6 C         139.1365  139.6958  161.2100 C.3     1  UNL1        0.0179
      7 C         138.2517  138.9667  163.5414 C.3     1  UNL1        0.0854
      8 O         138.4233  137.5052  165.6825 O.2     1  UNL1       -0.2749
      9 C         138.6437  138.8126  164.9810 C.2     1  UNL1        0.2256
     10 N         139.2560  139.9660  165.7192 N.am    1  UNL1       -0.2790
     11 C         139.6480  139.8119  167.1588 C.3     1  UNL1        0.0934
     12 C         140.2603  140.9652  167.8970 C.3     1  UNL1        0.0221
     13 C         140.4806  142.2726  167.1954 C.3     1  UNL1        0.0126
     14 C         140.0887  142.4267  165.7558 C.3     1  UNL1        0.0965
     15 C         139.4764  141.2734  165.0177 C.3     1  UNL1        0.1024
     16 C         140.3090  143.7341  165.0543 C.2     1  UNL1        0.2268
     17 O         139.1774  144.7080  164.9103 O.2     1  UNL1       -0.2748
     18 N         141.6610  144.0676  164.4968 N.am    1  UNL1       -0.2795
     19 C         142.0300  145.3292  163.7741 C.3     1  UNL1        0.0935
     20 C         143.4785  145.2394  163.3947 C.3     1  UNL1        0.0233
     21 C         144.0046  143.9222  163.8829 C.3     1  UNL1        0.0233
     22 C         142.8814  143.1980  164.5640 C.3     1  UNL1        0.0935
     23 C         142.4315  138.6770  159.2465 C.3     1  UNL1        0.1007
     24 C         142.3259  137.6421  158.1658 C.ar    1  UNL1        0.0129
     25 C         141.4668  137.7324  156.9396 C.ar    1  UNL1        0.0176
     26 C         141.6709  136.4814  156.1375 C.ar    1  UNL1        0.0799
     27 N         142.6562  135.6179  156.8681 N.ar    1  UNL1       -0.3038
     28 C         143.0610  136.3353  158.1217 C.ar    1  UNL1        0.0772
     29 C         143.1499  134.2732  156.4232 C.ar    1  UNL1        0.0640
     30 C         144.1567  133.5321  157.2519 C.ar    1  UNL1        0.0175
     31 C         144.6505  132.1874  156.8070 C.ar    1  UNL1        0.0053
     32 C         144.1373  131.5837  155.5334 C.ar    1  UNL1        0.0715
     33 C         143.1304  132.3248  154.7046 C.ar    1  UNL1        0.0053
     34 C         142.6367  133.6695  155.1495 C.ar    1  UNL1        0.0175
     35 C         144.6310  130.2390  155.0886 C.3     1  UNL1        0.4186
     36 F         145.1247  128.8943  154.6436 F       1  UNL1       -0.1659
     37 F         144.9917  129.9028  156.5052 F       1  UNL1       -0.1659
     38 F         144.2703  130.5752  153.6718 F       1  UNL1       -0.1659
@<TRIPOS>BOND
     1     8     9    2
     2     9     7    1
     3     7     1    1
     4     1     2    1
     5     2     3    1
     6     3     4    1
     7     4    23    1
     8    23    24    1
     9    24    25   ar
    10    25    26   ar
    11    26    27   ar
    12    27    29    1
    13    29    30   ar
    14    30    31   ar
    15    31    32   ar
    16    32    35    1
    17    35    36    1
    18    35    37    1
    19    35    38    1
    20    32    33   ar
    21    33    34   ar
    22    27    28   ar
    23     4     5    1
    24     5     6    1
    25     9    10   am
    26    10    11    1
    27    11    12    1
    28    12    13    1
    29    13    14    1
    30    14    16    1
    31    16    17    2
    32    16    18   am
    33    18    19    1
    34    19    20    1
    35    20    21    1
    36    21    22    1
    37    14    15    1
    38     6     1    1
    39    15    10    1
    40    28    24   ar
    41    22    18    1
    42    34    29   ar
@<TRIPOS>MOLECULE
*****
 38 42 0 0 0
SMALL
GASTEIGER

@<TRIPOS>ATOM
      1 C         138.9921  139.8884  158.6097 C.3     1  UNL1        0.0118
      2 C         139.9989  138.8945  159.1082 C.3     1  UNL1        0.0179
      3 C         139.8641  138.3174  160.4862 C.3     1  UNL1        0.0724
      4 N         138.7226  138.7342  161.3655 N.3     1  UNL1       -0.2689
      5 C         137.7159  139.7281  160.8670 C.3     1  UNL1        0.0724
      6 C         137.8506  140.3052  159.4890 C.3     1  UNL1        0.0179
      7 C         139.1268  140.4655  157.2317 C.3     1  UNL1        0.0854
      8 O         137.5983  142.3554  156.3141 O.2     1  UNL1       -0.2749
      9 C         138.8605  141.9233  156.9998 C.2     1  UNL1        0.2256
     10 N         139.8564  142.9492  157.4535 N.am    1  UNL1       -0.2790
     11 C         139.5901  144.4070  157.2216 C.3     1  UNL1        0.0934
     12 C         140.5860  145.4328  157.6754 C.3     1  UNL1        0.0221
     13 C         141.8482  145.0007  158.3610 C.3     1  UNL1        0.0126
     14 C         142.1145  143.5429  158.5929 C.3     1  UNL1        0.0965
     15 C         141.1186  142.5172  158.1392 C.3     1  UNL1        0.1024
     16 C         143.3768  143.1109  159.2786 C.2     1  UNL1        0.2268
     17 O         144.5079  142.5389  158.4766 O.2     1  UNL1       -0.2748
     18 N         143.5078  143.2509  160.7662 N.am    1  UNL1       -0.2795
     19 C         144.7028  142.8642  161.5863 C.3     1  UNL1        0.0935
     20 C         144.4005  143.1764  163.0220 C.3     1  UNL1        0.0233
     21 C         143.0186  143.7561  163.0891 C.3     1  UNL1        0.0233
     22 C         142.4670  143.8021  161.6950 C.3     1  UNL1        0.0935
     23 C         138.5879  138.1571  162.7436 C.3     1  UNL1        0.1007
     24 C         139.6795  138.3608  163.7520 C.ar    1  UNL1        0.0129
     25 C         140.8689  137.4700  163.9559 C.ar    1  UNL1        0.0176
     26 C         141.6978  138.0497  165.0635 C.ar    1  UNL1        0.0799
     27 N         141.0206  139.2989  165.5442 N.ar    1  UNL1       -0.3038
     28 C         139.7732  139.4911  164.7337 C.ar    1  UNL1        0.0772
     29 C         141.5056  140.1979  166.6426 C.ar    1  UNL1        0.0640
     30 C         142.6151  141.1724  166.3793 C.ar    1  UNL1        0.0175
     31 C         143.1001  142.0714  167.4777 C.ar    1  UNL1        0.0053
     32 C         142.4757  141.9959  168.8394 C.ar    1  UNL1        0.0715
     33 C         141.3662  141.0215  169.1028 C.ar    1  UNL1        0.0053
     34 C         140.8811  140.1225  168.0044 C.ar    1  UNL1        0.0175
     35 C         142.9607  142.8950  169.9378 C.3     1  UNL1        0.4186
     36 F         143.4457  143.7940  171.0362 F       1  UNL1       -0.1659
     37 F         144.2872  142.1948  169.9251 F       1  UNL1       -0.1659
     38 F         141.6342  143.5952  169.9505 F       1  UNL1       -0.1659
@<TRIPOS>BOND
     1     8     9    2
     2     9     7    1
     3     7     1    1
     4     1     2    1
     5     2     3    1
     6     3     4    1
     7     4    23    1
     8    23    24    1
     9    24    25   ar
    10    25    26   ar
    11    26    27   ar
    12    27    29    1
    13    29    30   ar
    14    30    31   ar
    15    31    32   ar
    16    32    35    1
    17    35    36    1
    18    35    37    1
    19    35    38    1
    20    32    33   ar
    21    33    34   ar
    22    27    28   ar
    23     4     5    1
    24     5     6    1
    25     9    10   am
    26    10    11    1
    27    11    12    1
    28    12    13    1
    29    13    14    1
    30    14    16    1
    31    16    17    2
    32    16    18   am
    33    18    19    1
    34    19    20    1
    35    20    21    1
    36    21    22    1
    37    14    15    1
    38     6     1    1
    39    15    10    1
    40    28    24   ar
    41    22    18    1
    42    34    29   ar
@<TRIPOS>MOLECULE
*****
 38 42 0 0 0
SMALL
GASTEIGER

@<TRIPOS>ATOM
      1 C         141.0777  142.7266  165.7319 C.3     1  UNL1        0.0118
      2 C         142.0693  142.8515  164.6134 C.3     1  UNL1        0.0179
      3 C         141.7871  143.7678  163.4598 C.3     1  UNL1        0.0724
      4 N         140.5132  144.5591  163.4247 N.3     1  UNL1       -0.2689
      5 C         139.5216  144.4341  164.5432 C.3     1  UNL1        0.0724
      6 C         139.8039  143.5179  165.6968 C.3     1  UNL1        0.0179
      7 C         141.3599  141.8103  166.8856 C.3     1  UNL1        0.0854
      8 O         139.7575  141.4497  168.8986 O.2     1  UNL1       -0.2749
      9 C         140.2388  141.0538  167.5341 C.2     1  UNL1        0.2256
     10 N         139.5988  139.9013  166.8183 N.am    1  UNL1       -0.2790
     11 C         138.4777  139.1448  167.4668 C.3     1  UNL1        0.0934
     12 C         137.8379  137.9924  166.7510 C.3     1  UNL1        0.0221
     13 C         138.3191  137.5965  165.3866 C.3     1  UNL1        0.0126
     14 C         139.4403  138.3530  164.7380 C.3     1  UNL1        0.0965
     15 C         140.0801  139.5054  165.4538 C.3     1  UNL1        0.1024
     16 C         139.9215  137.9571  163.3736 C.2     1  UNL1        0.2268
     17 O         140.9718  136.8963  163.2273 O.2     1  UNL1       -0.2748
     18 N         139.3525  138.6221  162.1554 N.am    1  UNL1       -0.2795
     19 C         139.7334  138.3325  160.7337 C.3     1  UNL1        0.0935
     20 C         138.9190  139.2249  159.8447 C.3     1  UNL1        0.0233
     21 C         138.0347  140.0659  160.7169 C.3     1  UNL1        0.0233
     22 C         138.3027  139.6934  162.1450 C.3     1  UNL1        0.0935
     23 C         140.2310  145.4753  162.2710 C.3     1  UNL1        0.1007
     24 C         140.2873  144.9520  160.8665 C.ar    1  UNL1        0.0129
     25 C         141.0714  145.5470  159.7346 C.ar    1  UNL1        0.0176
     26 C         140.8380  144.7045  158.5157 C.ar    1  UNL1        0.0799
     27 N         139.9096  143.5888  158.8942 N.ar    1  UNL1       -0.3038
     28 C         139.5692  143.7418  160.3471 C.ar    1  UNL1        0.0772
     29 C         139.4094  142.5096  157.9804 C.ar    1  UNL1        0.0640
     30 C         137.9371  142.3523  157.7409 C.ar    1  UNL1        0.0175
     31 C         137.4369  141.2732  156.8271 C.ar    1  UNL1        0.0053
     32 C         138.4090  140.3513  156.1526 C.ar    1  UNL1        0.0715
     33 C         139.8814  140.5085  156.3920 C.ar    1  UNL1        0.0053
     34 C         140.3816  141.5877  157.3059 C.ar    1  UNL1        0.0175
     35 C         137.9088  139.2721  155.2388 C.3     1  UNL1        0.4186
     36 F         137.4086  138.1929  154.3249 F       1  UNL1       -0.1659
     37 F         136.9631  140.2481  154.6038 F       1  UNL1       -0.1659
     38 F         138.8545  138.2960  155.8737 F       1  UNL1       -0.1659
@<TRIPOS>BOND
     1     8     9    2
     2     9     7    1
     3     7     1    1
     4     1     2    1
     5     2     3    1
     6     3     4    1
     7     4    23    1
     8    23    24    1
     9    24    25   ar
    10    25    26   ar
    11    26    27   ar
    12    27    29    1
    13    29    30   ar
    14    30    31   ar
    15    31    32   ar
    16    32    35    1
    17    35    36    1
    18    35    37    1
    19    35    38    1
    20    32    33   ar
    21    33    34   ar
    22    27    28   ar
    23     4     5    1
    24     5     6    1
    25     9    10   am
    26    10    11    1
    27    11    12    1
    28    12    13    1
    29    13    14    1
    30    14    16    1
    31    16    17    2
    32    16    18   am
    33    18    19    1
    34    19    20    1
    35    20    21    1
    36    21    22    1
    37    14    15    1
    38     6     1    1
    39    15    10    1
    40    28    24   ar
    41    22    18    1
    42    34    29   ar
@<TRIPOS>MOLECULE
*****
 38 42 0 0 0
SMALL
GASTEIGER

@<TRIPOS>ATOM
      1 C         141.8770  140.0484  158.1451 C.3     1  UNL1        0.0118
      2 C         143.2744  140.2198  158.6624 C.3     1  UNL1        0.0179
      3 C         143.6893  139.5491  159.9383 C.3     1  UNL1        0.0724
      4 N         142.7068  138.7070  160.6969 N.3     1  UNL1       -0.2689
      5 C         141.3093  138.5356  160.1796 C.3     1  UNL1        0.0724
      6 C         140.8944  139.2062  158.9037 C.3     1  UNL1        0.0179
      7 C         141.4620  140.7191  156.8691 C.3     1  UNL1        0.0854
      8 O         142.6360  142.5010  155.3871 O.2     1  UNL1       -0.2749
      9 C         141.8467  142.1459  156.6123 C.2     1  UNL1        0.2256
     10 N         141.4423  143.2178  157.5806 N.am    1  UNL1       -0.2790
     11 C         141.8270  144.6446  157.3237 C.3     1  UNL1        0.0934
     12 C         141.4225  145.7164  158.2920 C.3     1  UNL1        0.0221
     13 C         140.6333  145.3613  159.5172 C.3     1  UNL1        0.0126
     14 C         140.2485  143.9345  159.7740 C.3     1  UNL1        0.0965
     15 C         140.6530  142.8627  158.8057 C.3     1  UNL1        0.1024
     16 C         139.4592  143.5794  160.9992 C.2     1  UNL1        0.2268
     17 O         138.0332  143.1328  160.8693 O.2     1  UNL1       -0.2748
     18 N         140.0960  143.6709  162.3542 N.am    1  UNL1       -0.2795
     19 C         139.4355  143.3502  163.6622 C.3     1  UNL1        0.0935
     20 C         140.4364  143.5803  164.7556 C.3     1  UNL1        0.0233
     21 C         141.7154  144.0431  164.1232 C.3     1  UNL1        0.0233
     22 C         141.5050  144.0991  162.6391 C.3     1  UNL1        0.0935
     23 C         143.1218  138.0363  161.9729 C.3     1  UNL1        0.1007
     24 C         143.3197  138.8495  163.2177 C.ar    1  UNL1        0.0129
     25 C         144.6341  139.3313  163.7563 C.ar    1  UNL1        0.0176
     26 C         144.3648  140.1033  165.0139 C.ar    1  UNL1        0.0799
     27 N         142.8838  140.0986  165.2525 N.ar    1  UNL1       -0.3038
     28 C         142.2380  139.3237  164.1424 C.ar    1  UNL1        0.0772
     29 C         142.1735  140.7537  166.3998 C.ar    1  UNL1        0.0640
     30 C         140.7868  140.3184  166.7703 C.ar    1  UNL1        0.0175
     31 C         140.0765  140.9736  167.9176 C.ar    1  UNL1        0.0053
     32 C         140.7529  142.0639  168.6944 C.ar    1  UNL1        0.0715
     33 C         142.1397  142.4992  168.3239 C.ar    1  UNL1        0.0053
     34 C         142.8500  141.8441  167.1766 C.ar    1  UNL1        0.0175
     35 C         140.0426  142.7190  169.8416 C.3     1  UNL1        0.4186
     36 F         139.3323  143.3742  170.9889 F       1  UNL1       -0.1659
     37 F         139.1846  141.4998  170.0066 F       1  UNL1       -0.1659
     38 F         140.9006  143.9384  169.6766 F       1  UNL1       -0.1659
@<TRIPOS>BOND
     1     8     9    2
     2     9     7    1
     3     7     1    1
     4     1     2    1
     5     2     3    1
     6     3     4    1
     7     4    23    1
     8    23    24    1
     9    24    25   ar
    10    25    26   ar
    11    26    27   ar
    12    27    29    1
    13    29    30   ar
    14    30    31   ar
    15    31    32   ar
    16    32    35    1
    17    35    36    1
    18    35    37    1
    19    35    38    1
    20    32    33   ar
    21    33    34   ar
    22    27    28   ar
    23     4     5    1
    24     5     6    1
    25     9    10   am
    26    10    11    1
    27    11    12    1
    28    12    13    1
    29    13    14    1
    30    14    16    1
    31    16    17    2
    32    16    18   am
    33    18    19    1
    34    19    20    1
    35    20    21    1
    36    21    22    1
    37    14    15    1
    38     6     1    1
    39    15    10    1
    40    28    24   ar
    41    22    18    1
    42    34    29   ar
@<TRIPOS>MOLECULE
*****
 38 42 0 0 0
SMALL
GASTEIGER

@<TRIPOS>ATOM
      1 C         139.1130  142.5839  158.9048 C.3     1  UNL1        0.0118
      2 C         138.9539  141.1755  158.4139 C.3     1  UNL1        0.0179
      3 C         138.4514  140.1099  159.3423 C.3     1  UNL1        0.0724
      4 N         138.1079  140.4528  160.7616 N.3     1  UNL1       -0.2689
      5 C         138.2670  141.8612  161.2525 C.3     1  UNL1        0.0724
      6 C         138.7695  142.9267  160.3241 C.3     1  UNL1        0.0179
      7 C         139.6156  143.6495  157.9763 C.3     1  UNL1        0.0854
      8 O         140.4779  143.3430  155.5448 O.2     1  UNL1       -0.2749
      9 C         140.7334  143.3473  157.0229 C.2     1  UNL1        0.2256
     10 N         142.1068  143.0495  157.5475 N.am    1  UNL1       -0.2790
     11 C         143.2246  142.7473  156.5940 C.3     1  UNL1        0.0934
     12 C         144.5979  142.4495  157.1186 C.3     1  UNL1        0.0221
     13 C         144.8534  142.4539  158.5967 C.3     1  UNL1        0.0126
     14 C         143.7356  142.7560  159.5502 C.3     1  UNL1        0.0965
     15 C         142.3623  143.0538  159.0256 C.3     1  UNL1        0.1024
     16 C         143.9911  142.7603  161.0282 C.2     1  UNL1        0.2268
     17 O         144.1722  144.0603  161.7542 O.2     1  UNL1       -0.2748
     18 N         144.0654  141.4647  161.7803 N.am    1  UNL1       -0.2795
     19 C         144.3130  141.3123  163.2519 C.3     1  UNL1        0.0935
     20 C         144.3058  139.8473  163.5740 C.3     1  UNL1        0.0233
     21 C         144.0537  139.0943  162.3014 C.3     1  UNL1        0.0233
     22 C         143.9051  140.0938  161.1929 C.3     1  UNL1        0.0935
     23 C         137.6053  139.3872  161.6901 C.3     1  UNL1        0.1007
     24 C         138.4515  138.9379  162.8442 C.ar    1  UNL1        0.0129
     25 C         139.1703  137.6259  162.9524 C.ar    1  UNL1        0.0176
     26 C         139.8905  137.5989  164.2679 C.ar    1  UNL1        0.0799
     27 N         139.6167  138.8944  164.9729 N.ar    1  UNL1       -0.3038
     28 C         138.7273  139.7219  164.0930 C.ar    1  UNL1        0.0772
     29 C         140.1403  139.2924  166.3210 C.ar    1  UNL1        0.0640
     30 C         139.1853  139.6517  167.4203 C.ar    1  UNL1        0.0175
     31 C         139.7090  140.0497  168.7684 C.ar    1  UNL1        0.0053
     32 C         141.1876  140.0883  169.0172 C.ar    1  UNL1        0.0715
     33 C         142.1427  139.7290  167.9178 C.ar    1  UNL1        0.0053
     34 C         141.6191  139.3310  166.5697 C.ar    1  UNL1        0.0175
     35 C         141.7113  140.4863  170.3652 C.3     1  UNL1        0.4186
     36 F         142.2350  140.8843  171.7133 F       1  UNL1       -0.1659
     37 F         140.4203  140.0533  170.9945 F       1  UNL1       -0.1659
     38 F         143.0023  140.9193  169.7360 F       1  UNL1       -0.1659
@<TRIPOS>BOND
     1     8     9    2
     2     9     7    1
     3     7     1    1
     4     1     2    1
     5     2     3    1
     6     3     4    1
     7     4    23    1
     8    23    24    1
     9    24    25   ar
    10    25    26   ar
    11    26    27   ar
    12    27    29    1
    13    29    30   ar
    14    30    31   ar
    15    31    32   ar
    16    32    35    1
    17    35    36    1
    18    35    37    1
    19    35    38    1
    20    32    33   ar
    21    33    34   ar
    22    27    28   ar
    23     4     5    1
    24     5     6    1
    25     9    10   am
    26    10    11    1
    27    11    12    1
    28    12    13    1
    29    13    14    1
    30    14    16    1
    31    16    17    2
    32    16    18   am
    33    18    19    1
    34    19    20    1
    35    20    21    1
    36    21    22    1
    37    14    15    1
    38     6     1    1
    39    15    10    1
    40    28    24   ar
    41    22    18    1
    42    34    29   ar
@<TRIPOS>MOLECULE
*****
 38 42 0 0 0
SMALL
GASTEIGER

@<TRIPOS>ATOM
      1 C         140.0410  138.2286  161.5440 C.3     1  UNL1        0.0118
      2 C         141.5387  138.3112  161.5421 C.3     1  UNL1        0.0179
      3 C         142.2763  138.5261  160.2538 C.3     1  UNL1        0.0724
      4 N         141.5162  138.6584  158.9674 N.3     1  UNL1       -0.2689
      5 C         140.0185  138.5758  158.9694 C.3     1  UNL1        0.0724
      6 C         139.2809  138.3610  160.2576 C.3     1  UNL1        0.0179
      7 C         139.3033  138.0138  162.8324 C.3     1  UNL1        0.0854
      8 O         140.6579  136.9171  164.7590 O.2     1  UNL1       -0.2749
      9 C         140.0285  138.1299  164.1402 C.2     1  UNL1        0.2256
     10 N         140.1243  139.4588  164.8293 N.am    1  UNL1       -0.2790
     11 C         140.8495  139.5749  166.1372 C.3     1  UNL1        0.0934
     12 C         140.9453  140.9038  166.8262 C.3     1  UNL1        0.0221
     13 C         140.3159  142.1166  166.2074 C.3     1  UNL1        0.0126
     14 C         139.5907  142.0005  164.8995 C.3     1  UNL1        0.0965
     15 C         139.4949  140.6716  164.2105 C.3     1  UNL1        0.1024
     16 C         138.9613  143.2133  164.2807 C.2     1  UNL1        0.2268
     17 O         137.5829  143.6364  164.6940 O.2     1  UNL1       -0.2748
     18 N         139.7103  144.0030  163.2486 N.am    1  UNL1       -0.2795
     19 C         139.2127  145.2313  162.5459 C.3     1  UNL1        0.0935
     20 C         140.2833  145.6905  161.6010 C.3     1  UNL1        0.0233
     21 C         141.4426  144.7460  161.7197 C.3     1  UNL1        0.0233
     22 C         141.0884  143.7031  162.7379 C.3     1  UNL1        0.0935
     23 C         142.2538  138.8732  157.6791 C.3     1  UNL1        0.1007
     24 C         142.8710  137.7075  156.9648 C.ar    1  UNL1        0.0129
     25 C         143.6522  137.7703  155.6859 C.ar    1  UNL1        0.0176
     26 C         144.0793  136.3760  155.3347 C.ar    1  UNL1        0.0799
     27 N         143.5620  135.4514  156.3966 N.ar    1  UNL1       -0.3038
     28 C         142.8152  136.2743  157.4040 C.ar    1  UNL1        0.0772
     29 C         143.7572  133.9649  156.4428 C.ar    1  UNL1        0.0640
     30 C         143.2823  133.1103  155.3053 C.ar    1  UNL1        0.0175
     31 C         143.4775  131.6238  155.3516 C.ar    1  UNL1        0.0053
     32 C         144.1477  130.9919  156.5353 C.ar    1  UNL1        0.0715
     33 C         144.6227  131.8464  157.6729 C.ar    1  UNL1        0.0053
     34 C         144.4275  133.3329  157.6266 C.ar    1  UNL1        0.0175
     35 C         144.3429  129.5054  156.5816 C.3     1  UNL1        0.4186
     36 F         144.5381  128.0188  156.6279 F       1  UNL1       -0.1659
     37 F         145.4270  129.6157  155.5508 F       1  UNL1       -0.1659
     38 F         143.2587  129.3950  157.6124 F       1  UNL1       -0.1659
@<TRIPOS>BOND
     1     8     9    2
     2     9     7    1
     3     7     1    1
     4     1     2    1
     5     2     3    1
     6     3     4    1
     7     4    23    1
     8    23    24    1
     9    24    25   ar
    10    25    26   ar
    11    26    27   ar
    12    27    29    1
    13    29    30   ar
    14    30    31   ar
    15    31    32   ar
    16    32    35    1
    17    35    36    1
    18    35    37    1
    19    35    38    1
    20    32    33   ar
    21    33    34   ar
    22    27    28   ar
    23     4     5    1
    24     5     6    1
    25     9    10   am
    26    10    11    1
    27    11    12    1
    28    12    13    1
    29    13    14    1
    30    14    16    1
    31    16    17    2
    32    16    18   am
    33    18    19    1
    34    19    20    1
    35    20    21    1
    36    21    22    1
    37    14    15    1
    38     6     1    1
    39    15    10    1
    40    28    24   ar
    41    22    18    1
    42    34    29   ar
