@<TRIPOS>MOLECULE
*****
 30 33 0 0 0
SMALL
GASTEIGER

@<TRIPOS>ATOM
      1 C         142.4666  140.7326  165.9291 C.ar    1  UNL1        0.0315
      2 C         142.6325  142.1489  165.4638 C.ar    1  UNL1        0.0401
      3 C         143.7691  142.5114  164.5546 C.ar    1  UNL1        0.1492
      4 C         144.7398  141.4575  164.1107 C.ar    1  UNL1        0.0924
      5 CL        145.8764  141.8200  163.2014 Cl      1  UNL1       -0.0791
      6 C         144.5739  140.0412  164.5760 C.ar    1  UNL1        0.0259
      7 C         143.4373  139.6787  165.4852 C.ar    1  UNL1        0.0601
      8 CL        143.2714  138.2624  165.9505 Cl      1  UNL1       -0.0822
      9 C         140.3351  140.1806  169.2309 C.ar    1  UNL1        0.1690
     10 N         141.4716  140.5430  168.3217 N.ar    1  UNL1       -0.2226
     11 C         141.3299  140.3702  166.8384 C.ar    1  UNL1        0.0878
     12 C         140.0516  139.8350  166.2645 C.ar    1  UNL1        0.0628
     13 C         139.6231  139.5582  164.8539 C.ar    1  UNL1        0.0919
     14 C         138.2217  139.0247  164.8914 C.ar    1  UNL1        0.1109
     15 N         137.7840  138.9718  166.3252 N.ar    1  UNL1       -0.2262
     16 C         138.9150  139.4726  167.1738 C.ar    1  UNL1        0.1441
     17 N         139.0567  139.6454  168.6570 N.ar    1  UNL1       -0.3189
     18 H         138.3108  139.4076  169.2538 H       1  UNL1        0.1693
     19 C         141.2807  141.4948  171.2629 C.3     1  UNL1        0.0772
     20 S         140.4768  140.3535  170.7143 S.3     1  UNL1       -0.0766
     21 C         140.4507  139.7765  163.6220 C.1     1  UNL1        0.1021
     22 N         141.2783  139.9948  162.3902 N.1     1  UNL1       -0.1908
     23 O         143.9350  143.9277  164.0893 O.3     1  UNL1       -0.4731
     24 C         142.9183  144.5397  163.1718 C.3     1  UNL1        0.2227
     25 C         141.7190  145.2383  163.7406 C.3     1  UNL1        0.1200
     26 N         140.4098  144.5138  163.8478 N.3     1  UNL1       -0.2696
     27 C         139.3390  144.7738  164.8654 C.3     1  UNL1        0.0722
     28 C         138.2092  143.8228  164.6027 C.3     1  UNL1        0.0188
     29 C         138.5817  142.9752  163.4227 C.3     1  UNL1        0.0188
     30 C         139.9418  143.4022  162.9561 C.3     1  UNL1        0.0722
@<TRIPOS>BOND
     1    19    20    1
     2    20     9    1
     3     9    10   ar
     4    10    11   ar
     5    11     1    1
     6     1     2   ar
     7     2     3   ar
     8     3    23    1
     9    23    24    1
    10    24    25    1
    11    25    26    1
    12    26    27    1
    13    27    28    1
    14    28    29    1
    15    29    30    1
    16     3     4   ar
    17     4     5    1
    18     4     6   ar
    19     6     7   ar
    20     7     8    1
    21    11    12   ar
    22    12    13   ar
    23    13    21    1
    24    21    22    3
    25    13    14   ar
    26    14    15   ar
    27    15    16   ar
    28    16    17   ar
    29    17     9   ar
    30     7     1   ar
    31    16    12    1
    32    30    26    1
    33    17    18    1
@<TRIPOS>MOLECULE
*****
 30 33 0 0 0
SMALL
GASTEIGER

@<TRIPOS>ATOM
      1 C         140.1526  141.6325  165.8845 C.ar    1  UNL1        0.0315
      2 C         140.6496  142.9606  165.3954 C.ar    1  UNL1        0.0401
      3 C         139.8623  143.7259  164.3735 C.ar    1  UNL1        0.1492
      4 C         138.5780  143.1631  163.8407 C.ar    1  UNL1        0.0924
      5 CL        137.7908  143.9285  162.8187 Cl      1  UNL1       -0.0791
      6 C         138.0811  141.8351  164.3298 C.ar    1  UNL1        0.0259
      7 C         138.8684  141.0697  165.3517 C.ar    1  UNL1        0.0601
      8 CL        138.3714  139.7417  165.8408 Cl      1  UNL1       -0.0822
      9 C         141.4161  140.2600  169.3874 C.ar    1  UNL1        0.1690
     10 N         140.6289  141.0253  168.3654 N.ar    1  UNL1       -0.2226
     11 C         140.9400  140.8672  166.9065 C.ar    1  UNL1        0.0878
     12 C         142.0384  139.9439  166.4697 C.ar    1  UNL1        0.0628
     13 C         142.5691  139.5866  165.1130 C.ar    1  UNL1        0.0919
     14 C         143.6844  138.6005  165.2966 C.ar    1  UNL1        0.1109
     15 N         143.8431  138.3483  166.7667 N.ar    1  UNL1       -0.2262
     16 C         142.8257  139.1786  167.4918 C.ar    1  UNL1        0.1441
     17 N         142.5146  139.3367  168.9506 N.ar    1  UNL1       -0.3189
     18 H         143.0313  138.8344  169.6214 H       1  UNL1        0.1693
     19 C         141.0324  141.7878  171.4535 C.3     1  UNL1        0.0772
     20 S         141.1050  140.4181  170.8463 S.3     1  UNL1       -0.0766
     21 C         142.0718  140.1214  163.8028 C.1     1  UNL1        0.1021
     22 N         141.5745  140.6563  162.4926 N.1     1  UNL1       -0.1908
     23 O         140.3593  145.0540  163.8844 O.3     1  UNL1       -0.4731
     24 C         141.5889  145.1257  163.0283 C.3     1  UNL1        0.2227
     25 C         142.9466  145.1435  163.6657 C.3     1  UNL1        0.1200
     26 N         143.8402  143.9432  163.5608 N.3     1  UNL1       -0.2696
     27 C         144.3254  143.3138  162.2887 C.3     1  UNL1        0.0722
     28 C         145.1905  142.1433  162.6514 C.3     1  UNL1        0.0188
     29 C         145.2399  142.0493  164.1475 C.3     1  UNL1        0.0188
     30 C         144.4053  143.1617  164.7097 C.3     1  UNL1        0.0722
@<TRIPOS>BOND
     1    19    20    1
     2    20     9    1
     3     9    10   ar
     4    10    11   ar
     5    11     1    1
     6     1     2   ar
     7     2     3   ar
     8     3    23    1
     9    23    24    1
    10    24    25    1
    11    25    26    1
    12    26    27    1
    13    27    28    1
    14    28    29    1
    15    29    30    1
    16     3     4   ar
    17     4     5    1
    18     4     6   ar
    19     6     7   ar
    20     7     8    1
    21    11    12   ar
    22    12    13   ar
    23    13    21    1
    24    21    22    3
    25    13    14   ar
    26    14    15   ar
    27    15    16   ar
    28    16    17   ar
    29    17     9   ar
    30     7     1   ar
    31    16    12    1
    32    30    26    1
    33    17    18    1
@<TRIPOS>MOLECULE
*****
 30 33 0 0 0
SMALL
GASTEIGER

@<TRIPOS>ATOM
      1 C         140.4807  143.0600  164.9214 C.ar    1  UNL1        0.0315
      2 C         141.4021  142.6454  163.8126 C.ar    1  UNL1        0.0401
      3 C         141.4037  143.4009  162.5168 C.ar    1  UNL1        0.1492
      4 C         140.4839  144.5709  162.3297 C.ar    1  UNL1        0.0924
      5 CL        140.4855  145.3264  161.0339 Cl      1  UNL1       -0.0791
      6 C         139.5626  144.9855  163.4384 C.ar    1  UNL1        0.0259
      7 C         139.5609  144.2300  164.7343 C.ar    1  UNL1        0.0601
      8 CL        138.6396  144.6445  165.8430 Cl      1  UNL1       -0.0822
      9 C         141.3400  142.0095  168.6507 C.ar    1  UNL1        0.1690
     10 N         141.3415  142.7649  167.3550 N.ar    1  UNL1       -0.2226
     11 C         140.4792  142.3044  166.2172 C.ar    1  UNL1        0.0878
     12 C         139.6154  141.0883  166.3754 C.ar    1  UNL1        0.0628
     13 C         138.6681  140.4012  165.4371 C.ar    1  UNL1        0.0919
     14 C         138.0812  139.2210  166.1530 C.ar    1  UNL1        0.1109
     15 N         138.6657  139.1787  167.5338 N.ar    1  UNL1       -0.2262
     16 C         139.6139  140.3328  167.6712 C.ar    1  UNL1        0.1441
     17 N         140.4762  140.7934  168.8089 N.ar    1  UNL1       -0.3189
     18 H         140.4752  140.2975  169.6594 H       1  UNL1        0.1693
     19 C         143.6890  142.2809  169.7270 C.3     1  UNL1        0.0772
     20 S         142.2023  142.4700  169.7885 S.3     1  UNL1       -0.0766
     21 C         138.3616  140.8206  164.0299 C.1     1  UNL1        0.1021
     22 N         138.0551  141.2400  162.6227 N.1     1  UNL1       -0.1908
     23 O         142.3250  142.9864  161.4081 O.3     1  UNL1       -0.4731
     24 C         143.7714  143.3821  161.4474 C.3     1  UNL1        0.2227
     25 C         144.8378  142.3272  161.4469 C.3     1  UNL1        0.1200
     26 N         144.7473  141.1689  162.3958 N.3     1  UNL1       -0.2696
     27 C         143.9615  139.9101  162.1780 C.3     1  UNL1        0.0722
     28 C         144.1554  139.0294  163.3767 C.3     1  UNL1        0.0188
     29 C         145.0610  139.7440  164.3353 C.3     1  UNL1        0.0188
     30 C         145.4269  141.0664  163.7291 C.3     1  UNL1        0.0722
@<TRIPOS>BOND
     1    19    20    1
     2    20     9    1
     3     9    10   ar
     4    10    11   ar
     5    11     1    1
     6     1     2   ar
     7     2     3   ar
     8     3    23    1
     9    23    24    1
    10    24    25    1
    11    25    26    1
    12    26    27    1
    13    27    28    1
    14    28    29    1
    15    29    30    1
    16     3     4   ar
    17     4     5    1
    18     4     6   ar
    19     6     7   ar
    20     7     8    1
    21    11    12   ar
    22    12    13   ar
    23    13    21    1
    24    21    22    3
    25    13    14   ar
    26    14    15   ar
    27    15    16   ar
    28    16    17   ar
    29    17     9   ar
    30     7     1   ar
    31    16    12    1
    32    30    26    1
    33    17    18    1
@<TRIPOS>MOLECULE
*****
 30 33 0 0 0
SMALL
GASTEIGER

@<TRIPOS>ATOM
      1 C         141.0603  140.1042  165.6101 C.ar    1  UNL1        0.0315
      2 C         139.7909  140.6552  165.0313 C.ar    1  UNL1        0.0401
      3 C         138.9830  139.8301  164.0740 C.ar    1  UNL1        0.1492
      4 C         139.4444  138.4540  163.6956 C.ar    1  UNL1        0.0924
      5 CL        138.6365  137.6288  162.7384 Cl      1  UNL1       -0.0791
      6 C         140.7138  137.9029  164.2744 C.ar    1  UNL1        0.0259
      7 C         141.5218  138.7281  165.2317 C.ar    1  UNL1        0.0601
      8 CL        142.7912  138.1770  165.8105 Cl      1  UNL1       -0.0822
      9 C         142.4599  141.6151  169.0025 C.ar    1  UNL1        0.1690
     10 N         141.6521  140.7900  168.0452 N.ar    1  UNL1       -0.2226
     11 C         141.8682  140.9294  166.5674 C.ar    1  UNL1        0.0878
     12 C         142.8922  141.8940  166.0469 C.ar    1  UNL1        0.0628
     13 C         143.3235  142.2453  164.6539 C.ar    1  UNL1        0.0919
     14 C         144.3980  143.2875  164.7502 C.ar    1  UNL1        0.1109
     15 N         144.6307  143.5804  166.2028 N.ar    1  UNL1       -0.2262
     16 C         143.7001  142.7192  167.0042 C.ar    1  UNL1        0.1441
     17 N         143.4840  142.5798  168.4820 N.ar    1  UNL1       -0.3189
     18 H         144.0142  143.1213  169.1103 H       1  UNL1        0.1693
     19 C         140.8668  141.2166  171.0157 C.3     1  UNL1        0.0772
     20 S         142.2438  141.4757  170.4803 S.3     1  UNL1       -0.0766
     21 C         142.7765  141.6575  163.3869 C.1     1  UNL1        0.1021
     22 N         142.2294  141.0696  162.1199 N.1     1  UNL1       -0.1908
     23 O         137.7136  140.3811  163.4952 O.3     1  UNL1       -0.4731
     24 C         137.7418  141.1122  162.1858 C.3     1  UNL1        0.2227
     25 C         137.7094  142.6117  162.1631 C.3     1  UNL1        0.1200
     26 N         138.4275  143.3934  163.2231 N.3     1  UNL1       -0.2696
     27 C         137.8334  143.8881  164.5084 C.3     1  UNL1        0.0722
     28 C         138.9045  144.6180  165.2634 C.3     1  UNL1        0.0188
     29 C         140.1605  144.5744  164.4447 C.3     1  UNL1        0.0188
     30 C         139.8657  143.8175  163.1836 C.3     1  UNL1        0.0722
@<TRIPOS>BOND
     1    19    20    1
     2    20     9    1
     3     9    10   ar
     4    10    11   ar
     5    11     1    1
     6     1     2   ar
     7     2     3   ar
     8     3    23    1
     9    23    24    1
    10    24    25    1
    11    25    26    1
    12    26    27    1
    13    27    28    1
    14    28    29    1
    15    29    30    1
    16     3     4   ar
    17     4     5    1
    18     4     6   ar
    19     6     7   ar
    20     7     8    1
    21    11    12   ar
    22    12    13   ar
    23    13    21    1
    24    21    22    3
    25    13    14   ar
    26    14    15   ar
    27    15    16   ar
    28    16    17   ar
    29    17     9   ar
    30     7     1   ar
    31    16    12    1
    32    30    26    1
    33    17    18    1
@<TRIPOS>MOLECULE
*****
 30 33 0 0 0
SMALL
GASTEIGER

@<TRIPOS>ATOM
      1 C         140.9971  142.3825  165.4630 C.ar    1  UNL1        0.0315
      2 C         142.0655  141.7521  164.6197 C.ar    1  UNL1        0.0401
      3 C         142.4179  142.3461  163.2881 C.ar    1  UNL1        0.1492
      4 C         141.7019  143.5703  162.7999 C.ar    1  UNL1        0.0924
      5 CL        142.0543  144.1642  161.4683 Cl      1  UNL1       -0.0791
      6 C         140.6335  144.2007  163.6432 C.ar    1  UNL1        0.0259
      7 C         140.2811  143.6068  164.9748 C.ar    1  UNL1        0.0601
      8 CL        139.2127  144.2372  165.8180 Cl      1  UNL1       -0.0822
      9 C         140.9522  141.7046  169.3730 C.ar    1  UNL1        0.1690
     10 N         141.3045  142.2985  168.0415 N.ar    1  UNL1       -0.2226
     11 C         140.6448  141.7885  166.7945 C.ar    1  UNL1        0.0878
     12 C         139.6328  140.6846  166.8793 C.ar    1  UNL1        0.0628
     13 C         138.8238  139.9820  165.8297 C.ar    1  UNL1        0.0919
     14 C         137.9715  138.9538  166.5126 C.ar    1  UNL1        0.1109
     15 N         138.2537  139.0209  167.9843 N.ar    1  UNL1       -0.2262
     16 C         139.2805  140.0907  168.2109 C.ar    1  UNL1        0.1441
     17 N         139.9402  140.6007  169.4578 N.ar    1  UNL1       -0.3189
     18 H         139.7090  140.2109  170.3317 H       1  UNL1        0.1693
     19 C         142.8787  143.0124  170.5256 C.3     1  UNL1        0.0772
     20 S         141.6119  142.2146  170.6200 S.3     1  UNL1       -0.0766
     21 C         138.8606  140.2589  164.3559 C.1     1  UNL1        0.1021
     22 N         138.8974  140.5358  162.8822 N.1     1  UNL1       -0.1908
     23 O         143.4863  141.7157  162.4448 O.3     1  UNL1       -0.4731
     24 C         144.4167  140.7040  163.0456 C.3     1  UNL1        0.2227
     25 C         144.2396  139.2466  162.7382 C.3     1  UNL1        0.1200
     26 N         143.0163  138.5224  163.2168 N.3     1  UNL1       -0.2696
     27 C         141.9410  137.9390  162.3489 C.3     1  UNL1        0.0722
     28 C         140.9137  137.3105  163.2431 C.3     1  UNL1        0.0188
     29 C         141.3540  137.5055  164.6636 C.3     1  UNL1        0.0188
     30 C         142.6535  138.2545  164.6474 C.3     1  UNL1        0.0722
@<TRIPOS>BOND
     1    19    20    1
     2    20     9    1
     3     9    10   ar
     4    10    11   ar
     5    11     1    1
     6     1     2   ar
     7     2     3   ar
     8     3    23    1
     9    23    24    1
    10    24    25    1
    11    25    26    1
    12    26    27    1
    13    27    28    1
    14    28    29    1
    15    29    30    1
    16     3     4   ar
    17     4     5    1
    18     4     6   ar
    19     6     7   ar
    20     7     8    1
    21    11    12   ar
    22    12    13   ar
    23    13    21    1
    24    21    22    3
    25    13    14   ar
    26    14    15   ar
    27    15    16   ar
    28    16    17   ar
    29    17     9   ar
    30     7     1   ar
    31    16    12    1
    32    30    26    1
    33    17    18    1
@<TRIPOS>MOLECULE
*****
 30 33 0 0 0
SMALL
GASTEIGER

@<TRIPOS>ATOM
      1 C         141.6483  141.9628  165.3968 C.ar    1  UNL1        0.0315
      2 C         141.1886  143.2791  164.8435 C.ar    1  UNL1        0.0401
      3 C         142.0856  144.0642  163.9329 C.ar    1  UNL1        0.1492
      4 C         143.4420  143.5330  163.5757 C.ar    1  UNL1        0.0924
      5 CL        144.3390  144.3181  162.6651 Cl      1  UNL1       -0.0791
      6 C         143.9017  142.2167  164.1290 C.ar    1  UNL1        0.0259
      7 C         143.0047  141.4316  165.0395 C.ar    1  UNL1        0.0601
      8 CL        143.4644  140.1153  165.5928 Cl      1  UNL1       -0.0822
      9 C         139.7678  140.7465  168.6731 C.ar    1  UNL1        0.1690
     10 N         140.6647  141.5315  167.7626 N.ar    1  UNL1       -0.2226
     11 C         140.7513  141.1777  166.3074 C.ar    1  UNL1        0.0878
     12 C         139.9408  140.0390  165.7629 C.ar    1  UNL1        0.0628
     13 C         139.8205  139.4621  164.3835 C.ar    1  UNL1        0.0919
     14 C         138.8492  138.3205  164.4417 C.ar    1  UNL1        0.1109
     15 N         138.3692  138.1919  165.8570 N.ar    1  UNL1       -0.2262
     16 C         139.0439  139.2540  166.6736 C.ar    1  UNL1        0.1441
     17 N         138.9574  139.6078  168.1287 N.ar    1  UNL1       -0.3189
     18 H         138.3687  139.0925  168.7264 H       1  UNL1        0.1693
     19 C         140.0332  142.4847  170.5858 C.3     1  UNL1        0.0772
     20 S         139.6812  141.1002  170.1283 S.3     1  UNL1       -0.0766
     21 C         140.5445  139.9424  163.1607 C.1     1  UNL1        0.1021
     22 N         141.2684  140.4227  161.9379 N.1     1  UNL1       -0.1908
     23 O         141.6259  145.3805  163.3796 O.3     1  UNL1       -0.4731
     24 C         140.7608  145.4182  162.1548 C.3     1  UNL1        0.2227
     25 C         139.2681  145.3564  162.2887 C.3     1  UNL1        0.1200
     26 N         138.5877  144.0354  162.4943 N.3     1  UNL1       -0.2696
     27 C         138.5096  142.9190  161.4956 C.3     1  UNL1        0.0722
     28 C         137.7396  141.7927  162.1188 C.3     1  UNL1        0.0188
     29 C         137.3418  142.2130  163.5026 C.3     1  UNL1        0.0188
     30 C         137.8660  143.5991  163.7347 C.3     1  UNL1        0.0722
@<TRIPOS>BOND
     1    19    20    1
     2    20     9    1
     3     9    10   ar
     4    10    11   ar
     5    11     1    1
     6     1     2   ar
     7     2     3   ar
     8     3    23    1
     9    23    24    1
    10    24    25    1
    11    25    26    1
    12    26    27    1
    13    27    28    1
    14    28    29    1
    15    29    30    1
    16     3     4   ar
    17     4     5    1
    18     4     6   ar
    19     6     7   ar
    20     7     8    1
    21    11    12   ar
    22    12    13   ar
    23    13    21    1
    24    21    22    3
    25    13    14   ar
    26    14    15   ar
    27    15    16   ar
    28    16    17   ar
    29    17     9   ar
    30     7     1   ar
    31    16    12    1
    32    30    26    1
    33    17    18    1
@<TRIPOS>MOLECULE
*****
 30 33 0 0 0
SMALL
GASTEIGER

@<TRIPOS>ATOM
      1 C         140.7511  140.3676  163.4184 C.ar    1  UNL1        0.0315
      2 C         142.2118  140.6646  163.5859 C.ar    1  UNL1        0.0401
      3 C         143.0349  139.8614  164.5489 C.ar    1  UNL1        0.1492
      4 C         142.3973  138.7611  165.3443 C.ar    1  UNL1        0.0924
      5 CL        143.2204  137.9579  166.3072 Cl      1  UNL1       -0.0791
      6 C         140.9366  138.4640  165.1767 C.ar    1  UNL1        0.0259
      7 C         140.1135  139.2673  164.2138 C.ar    1  UNL1        0.0601
      8 CL        138.6528  138.9702  164.0463 Cl      1  UNL1       -0.0822
      9 C         139.0212  141.5624  160.0524 C.ar    1  UNL1        0.1690
     10 N         139.8442  140.7592  161.0153 N.ar    1  UNL1       -0.2226
     11 C         139.9280  141.1709  162.4554 C.ar    1  UNL1        0.0878
     12 C         139.1888  142.3858  162.9323 C.ar    1  UNL1        0.0628
     13 C         139.0832  143.0307  164.2824 C.ar    1  UNL1        0.0919
     14 C         138.1950  144.2325  164.1538 C.ar    1  UNL1        0.1109
     15 N         137.7515  144.3304  162.7242 N.ar    1  UNL1       -0.2262
     16 C         138.3658  143.1890  161.9692 C.ar    1  UNL1        0.1441
     17 N         138.2820  142.7773  160.5293 N.ar    1  UNL1       -0.3189
     18 H         137.7418  143.3045  159.8972 H       1  UNL1        0.1693
     19 C         137.7420  141.5338  157.7912 C.3     1  UNL1        0.0772
     20 S         138.9374  141.1507  158.6123 S.3     1  UNL1       -0.0766
     21 C         139.7491  142.5570  165.5403 C.1     1  UNL1        0.1021
     22 N         140.4149  142.0833  166.7982 N.1     1  UNL1       -0.1908
     23 O         144.4956  140.1585  164.7164 O.3     1  UNL1       -0.4731
     24 C         145.3034  140.6343  163.5454 C.3     1  UNL1        0.2227
     25 C         145.6569  142.0865  163.4185 C.3     1  UNL1        0.1200
     26 N         144.5713  143.1197  163.3540 N.3     1  UNL1       -0.2696
     27 C         143.8470  143.5616  162.1172 C.3     1  UNL1        0.0722
     28 C         142.8476  144.6074  162.5140 C.3     1  UNL1        0.0188
     29 C         142.9543  144.8119  163.9960 C.3     1  UNL1        0.0188
     30 C         144.0197  143.8924  164.5153 C.3     1  UNL1        0.0722
@<TRIPOS>BOND
     1    19    20    1
     2    20     9    1
     3     9    10   ar
     4    10    11   ar
     5    11     1    1
     6     1     2   ar
     7     2     3   ar
     8     3    23    1
     9    23    24    1
    10    24    25    1
    11    25    26    1
    12    26    27    1
    13    27    28    1
    14    28    29    1
    15    29    30    1
    16     3     4   ar
    17     4     5    1
    18     4     6   ar
    19     6     7   ar
    20     7     8    1
    21    11    12   ar
    22    12    13   ar
    23    13    21    1
    24    21    22    3
    25    13    14   ar
    26    14    15   ar
    27    15    16   ar
    28    16    17   ar
    29    17     9   ar
    30     7     1   ar
    31    16    12    1
    32    30    26    1
    33    17    18    1
@<TRIPOS>MOLECULE
*****
 30 33 0 0 0
SMALL
GASTEIGER

@<TRIPOS>ATOM
      1 C         142.6741  142.5210  162.2089 C.ar    1  UNL1        0.0315
      2 C         142.3973  141.0534  162.0699 C.ar    1  UNL1        0.0401
      3 C         143.2582  140.0565  162.7876 C.ar    1  UNL1        0.1492
      4 C         144.3958  140.5273  163.6443 C.ar    1  UNL1        0.0924
      5 CL        145.2566  139.5304  164.3620 Cl      1  UNL1       -0.0791
      6 C         144.6726  141.9950  163.7833 C.ar    1  UNL1        0.0259
      7 C         143.8118  142.9919  163.0656 C.ar    1  UNL1        0.0601
      8 CL        144.0886  144.4595  163.2046 Cl      1  UNL1       -0.0822
      9 C         141.3529  145.0117  159.4159 C.ar    1  UNL1        0.1690
     10 N         142.2137  144.0149  160.1336 N.ar    1  UNL1       -0.2226
     11 C         141.8132  143.5179  161.4911 C.ar    1  UNL1        0.0878
     12 C         140.5519  144.0178  162.1307 C.ar    1  UNL1        0.0628
     13 C         139.9054  143.7113  163.4491 C.ar    1  UNL1        0.0919
     14 C         138.6450  144.5187  163.5460 C.ar    1  UNL1        0.1109
     15 N         138.5125  145.3242  162.2876 N.ar    1  UNL1       -0.2262
     16 C         139.6910  145.0146  161.4128 C.ar    1  UNL1        0.1441
     17 N         140.0915  145.5116  160.0554 N.ar    1  UNL1       -0.3189
     18 H         139.5266  146.1658  159.5843 H       1  UNL1        0.1693
     19 C         140.7151  146.0533  157.1228 C.3     1  UNL1        0.0772
     20 S         141.7534  145.5087  158.0584 S.3     1  UNL1       -0.0766
     21 C         140.4276  142.7638  164.4880 C.1     1  UNL1        0.1021
     22 N         140.9498  141.8162  165.5270 N.1     1  UNL1       -0.1908
     23 O         142.9813  138.5888  162.6485 O.3     1  UNL1       -0.4731
     24 C         141.8466  138.1179  161.7880 C.3     1  UNL1        0.2227
     25 C         140.5005  137.8592  162.3972 C.3     1  UNL1        0.1200
     26 N         139.4801  138.9572  162.4553 N.3     1  UNL1       -0.2696
     27 C         138.7191  139.3901  163.6732 C.3     1  UNL1        0.0722
     28 C         137.8103  140.5155  163.2762 C.3     1  UNL1        0.0188
     29 C         138.0098  140.7782  161.8130 C.3     1  UNL1        0.0188
     30 C         139.0418  139.8151  161.3056 C.3     1  UNL1        0.0722
@<TRIPOS>BOND
     1    19    20    1
     2    20     9    1
     3     9    10   ar
     4    10    11   ar
     5    11     1    1
     6     1     2   ar
     7     2     3   ar
     8     3    23    1
     9    23    24    1
    10    24    25    1
    11    25    26    1
    12    26    27    1
    13    27    28    1
    14    28    29    1
    15    29    30    1
    16     3     4   ar
    17     4     5    1
    18     4     6   ar
    19     6     7   ar
    20     7     8    1
    21    11    12   ar
    22    12    13   ar
    23    13    21    1
    24    21    22    3
    25    13    14   ar
    26    14    15   ar
    27    15    16   ar
    28    16    17   ar
    29    17     9   ar
    30     7     1   ar
    31    16    12    1
    32    30    26    1
    33    17    18    1
@<TRIPOS>MOLECULE
*****
 30 33 0 0 0
SMALL
GASTEIGER

@<TRIPOS>ATOM
      1 C         142.4242  142.3089  163.9654 C.ar    1  UNL1        0.0315
      2 C         141.5827  141.1047  164.2681 C.ar    1  UNL1        0.0401
      3 C         141.5991  140.5045  165.6427 C.ar    1  UNL1        0.1492
      4 C         142.4570  141.1087  166.7145 C.ar    1  UNL1        0.0924
      5 CL        142.4734  140.5085  168.0892 Cl      1  UNL1       -0.0791
      6 C         143.2985  142.3129  166.4119 C.ar    1  UNL1        0.0259
      7 C         143.2822  142.9131  165.0373 C.ar    1  UNL1        0.0601
      8 CL        144.1237  144.1173  164.7346 Cl      1  UNL1       -0.0822
      9 C         143.3520  143.0202  160.1728 C.ar    1  UNL1        0.1690
     10 N         143.3684  142.4201  161.5474 N.ar    1  UNL1       -0.2226
     11 C         142.4078  142.9090  162.5907 C.ar    1  UNL1        0.0878
     12 C         141.4309  143.9979  162.2593 C.ar    1  UNL1        0.0628
     13 C         140.3721  144.6789  163.0749 C.ar    1  UNL1        0.0919
     14 C         139.7014  145.6998  162.2044 C.ar    1  UNL1        0.1109
     15 N         140.3456  145.6498  160.8507 N.ar    1  UNL1       -0.2262
     16 C         141.4146  144.5980  160.8846 C.ar    1  UNL1        0.1441
     17 N         142.3751  144.1091  159.8414 N.ar    1  UNL1       -0.3189
     18 H         142.3644  144.5029  158.9391 H       1  UNL1        0.1693
     19 C         144.0131  142.7452  157.6754 C.3     1  UNL1        0.0772
     20 S         144.3126  142.5313  159.1295 S.3     1  UNL1       -0.0766
     21 C         140.0421  144.3897  164.5093 C.1     1  UNL1        0.1021
     22 N         139.7120  144.1005  165.9437 N.1     1  UNL1       -0.1908
     23 O         140.7576  139.3003  165.9454 O.3     1  UNL1       -0.4731
     24 C         139.3496  139.4726  166.4332 C.3     1  UNL1        0.2227
     25 C         138.1988  139.2457  165.4982 C.3     1  UNL1        0.1200
     26 N         138.0553  140.0903  164.2669 N.3     1  UNL1       -0.2696
     27 C         137.7820  141.5648  164.2361 C.3     1  UNL1        0.0722
     28 C         137.7176  141.9943  162.8003 C.3     1  UNL1        0.0188
     29 C         137.9511  140.7853  161.9439 C.3     1  UNL1        0.0188
     30 C         138.1598  139.6085  162.8503 C.3     1  UNL1        0.0722
@<TRIPOS>BOND
     1    19    20    1
     2    20     9    1
     3     9    10   ar
     4    10    11   ar
     5    11     1    1
     6     1     2   ar
     7     2     3   ar
     8     3    23    1
     9    23    24    1
    10    24    25    1
    11    25    26    1
    12    26    27    1
    13    27    28    1
    14    28    29    1
    15    29    30    1
    16     3     4   ar
    17     4     5    1
    18     4     6   ar
    19     6     7   ar
    20     7     8    1
    21    11    12   ar
    22    12    13   ar
    23    13    21    1
    24    21    22    3
    25    13    14   ar
    26    14    15   ar
    27    15    16   ar
    28    16    17   ar
    29    17     9   ar
    30     7     1   ar
    31    16    12    1
    32    30    26    1
    33    17    18    1
