@<TRIPOS>MOLECULE
*****
 37 39 0 0 0
SMALL
GASTEIGER

@<TRIPOS>ATOM
      1 N         141.7645  142.0061  164.4490 N.am    1  UNL1       -0.2531
      2 C         143.2264  141.7288  164.2600 C.2     1  UNL1        0.3136
      3 O         143.9909  140.9838  165.3139 O.2     1  UNL1       -0.2518
      4 N         143.9240  142.1965  163.0172 N.am    1  UNL1       -0.2262
      5 C         145.3859  141.9192  162.8281 C.3     1  UNL1        0.1231
      6 H         141.2627  142.4951  163.7574 H       1  UNL1        0.1578
      7 C         140.4879  141.8616  168.2040 C.ar    1  UNL1        0.0588
      8 C         141.1854  142.3292  166.9611 C.ar    1  UNL1        0.0495
      9 C         141.0670  141.5384  165.6920 C.ar    1  UNL1        0.1366
     10 N         140.2511  140.2800  165.6658 N.ar    1  UNL1       -0.2282
     11 C         139.5536  139.8124  166.9087 C.ar    1  UNL1        0.1118
     12 C         139.6721  140.6032  168.1778 C.ar    1  UNL1        0.1007
     13 N         140.6064  142.6523  169.4731 N.pl3   1  UNL1       -0.3300
     14 H         139.8773  143.2542  169.7479 H       1  UNL1        0.1469
     15 C         141.8355  142.5261  170.3235 C.3     1  UNL1        0.1196
     16 C         142.1937  141.2028  170.9323 C.3     1  UNL1        0.1634
     17 C         142.5946  138.9851  169.6396 C.3     1  UNL1        0.1742
     18 O         143.1190  140.2701  170.2084 O.3     1  UNL1       -0.3493
     19 C         138.9745  140.1355  169.4207 C.1     1  UNL1        0.1032
     20 N         138.2770  139.6678  170.6636 N.1     1  UNL1       -0.1907
     21 C         143.1595  142.9415  161.9632 C.ar    1  UNL1        0.1387
     22 C         143.4283  142.6743  160.5119 C.ar    1  UNL1        0.0345
     23 C         142.6638  143.4193  159.4581 C.ar    1  UNL1        0.0019
     24 C         141.6306  144.4314  159.8556 C.ar    1  UNL1        0.0187
     25 CA        141.3618  144.6986  161.3069 C.ar    1  UNL1        0.1224
     26 N         142.1262  143.9536  162.3607 N.ar    1  UNL1       -0.2272
     27 C         140.3285  145.7107  161.7044 C.2     1  UNL1        0.2529
     28 O         138.8851  145.3130  161.7951 O.2     1  UNL1       -0.2815
     29 C         140.8661  145.1764  158.8017 C.3     1  UNL1        0.1218
     30 N         139.8483  144.4591  157.9655 N.am    1  UNL1       -0.2728
     31 C         139.1433  143.2533  158.5125 C.3     1  UNL1        0.1111
     32 C         138.1254  142.5360  157.6763 C.3     1  UNL1        0.0943
     33 N         137.8125  143.0244  156.2929 N.3     1  UNL1       -0.2623
     34 C         136.7946  142.3071  155.4567 C.3     1  UNL1        0.0901
     35 C         138.5174  144.2301  155.7459 C.3     1  UNL1        0.1587
     36 C         139.5353  144.9475  156.5822 C.2     1  UNL1        0.2423
     37 O         140.2403  146.1532  156.0351 O.2     1  UNL1       -0.2733
@<TRIPOS>BOND
     1    17    18    1
     2    18    16    1
     3    16    15    1
     4    15    13    1
     5    13     7    1
     6     7     8   ar
     7     8     9   ar
     8     9     1    1
     9     1     2   am
    10     2     3    2
    11     2     4   am
    12     4     5    1
    13     4    21    1
    14    21    22   ar
    15    22    23   ar
    16    23    24   ar
    17    24    29    1
    18    29    30    1
    19    30    31    1
    20    31    32    1
    21    32    33    1
    22    33    34    1
    23    33    35    1
    24    35    36    1
    25    36    37    2
    26    24    25   ar
    27    25    27    1
    28    27    28    2
    29    25    26   ar
    30     9    10   ar
    31    10    11   ar
    32    11    12   ar
    33    12    19    1
    34    19    20    3
    35    12     7   ar
    36    26    21   ar
    37    36    30   am
    38    13    14    1
    39     1     6    1
@<TRIPOS>MOLECULE
*****
 37 39 0 0 0
SMALL
GASTEIGER

@<TRIPOS>ATOM
      1 N         142.6998  135.9567  157.3574 N.am    1  UNL1       -0.2531
      2 C         143.2951  137.2003  156.7664 C.2     1  UNL1        0.3136
      3 O         144.3815  137.0958  155.7373 O.2     1  UNL1       -0.2518
      4 N         142.8041  138.5482  157.2044 N.am    1  UNL1       -0.2262
      5 C         143.3994  139.7917  156.6134 C.3     1  UNL1        0.1231
      6 H         141.9868  136.0253  158.0327 H       1  UNL1        0.1578
      7 C         143.2764  132.7127  155.1452 C.ar    1  UNL1        0.0588
      8 C         142.7853  134.0606  155.5833 C.ar    1  UNL1        0.0495
      9 C         143.1909  134.6088  156.9193 C.ar    1  UNL1        0.1366
     10 N         144.0876  133.8090  157.8172 N.ar    1  UNL1       -0.2282
     11 C         144.5787  132.4611  157.3791 C.ar    1  UNL1        0.1118
     12 C         144.1731  131.9130  156.0431 C.ar    1  UNL1        0.1007
     13 N         142.8708  132.1645  153.8091 N.pl3   1  UNL1       -0.3300
     14 H         143.5414  132.0590  153.0962 H       1  UNL1        0.1469
     15 C         141.4434  131.7771  153.5594 C.3     1  UNL1        0.1196
     16 C         140.6181  131.1979  154.6700 C.3     1  UNL1        0.1634
     17 C         141.6214  128.8444  154.2177 C.3     1  UNL1        0.1742
     18 O         140.6165  129.7171  154.9094 O.3     1  UNL1       -0.3493
     19 C         144.6642  130.5650  155.6050 C.1     1  UNL1        0.1032
     20 N         145.1553  129.2171  155.1670 N.1     1  UNL1       -0.1907
     21 C         141.7176  138.6526  158.2335 C.ar    1  UNL1        0.1387
     22 C         140.3247  139.0234  157.8185 C.ar    1  UNL1        0.0345
     23 C         139.2384  139.1278  158.8476 C.ar    1  UNL1        0.0019
     24 C         139.5450  138.8615  160.2915 C.ar    1  UNL1        0.0187
     25 CA        140.9379  138.4907  160.7065 C.ar    1  UNL1        0.1224
     26 N         142.0243  138.3863  159.6774 N.ar    1  UNL1       -0.2272
     27 C         141.2445  138.2244  162.1504 C.2     1  UNL1        0.2529
     28 O         140.8602  136.9132  162.7693 O.2     1  UNL1       -0.2815
     29 C         138.4586  138.9660  161.3206 C.3     1  UNL1        0.1218
     30 N         138.2955  140.2287  162.1135 N.am    1  UNL1       -0.2728
     31 C         138.1181  141.5401  161.4074 C.3     1  UNL1        0.1111
     32 C         137.9550  142.8029  162.2003 C.3     1  UNL1        0.0943
     33 N         137.9694  142.7543  163.6995 N.3     1  UNL1       -0.2623
     34 C         137.8064  144.0170  164.4925 C.3     1  UNL1        0.0901
     35 C         138.1469  141.4428  164.4057 C.3     1  UNL1        0.1587
     36 C         138.3099  140.1800  163.6126 C.2     1  UNL1        0.2423
     37 O         138.4874  138.8686  164.3188 O.2     1  UNL1       -0.2733
@<TRIPOS>BOND
     1    17    18    1
     2    18    16    1
     3    16    15    1
     4    15    13    1
     5    13     7    1
     6     7     8   ar
     7     8     9   ar
     8     9     1    1
     9     1     2   am
    10     2     3    2
    11     2     4   am
    12     4     5    1
    13     4    21    1
    14    21    22   ar
    15    22    23   ar
    16    23    24   ar
    17    24    29    1
    18    29    30    1
    19    30    31    1
    20    31    32    1
    21    32    33    1
    22    33    34    1
    23    33    35    1
    24    35    36    1
    25    36    37    2
    26    24    25   ar
    27    25    27    1
    28    27    28    2
    29    25    26   ar
    30     9    10   ar
    31    10    11   ar
    32    11    12   ar
    33    12    19    1
    34    19    20    3
    35    12     7   ar
    36    26    21   ar
    37    36    30   am
    38    13    14    1
    39     1     6    1
@<TRIPOS>MOLECULE
*****
 37 39 0 0 0
SMALL
GASTEIGER

@<TRIPOS>ATOM
      1 N         142.3184  136.5027  157.0291 N.am    1  UNL1       -0.2531
      2 C         143.1415  137.7167  156.7149 C.2     1  UNL1        0.3136
      3 O         144.2617  137.6267  155.7213 O.2     1  UNL1       -0.2518
      4 N         142.8444  139.0206  157.3942 N.am    1  UNL1       -0.2262
      5 C         143.6675  140.2346  157.0799 C.3     1  UNL1        0.1231
      6 H         141.5832  136.5617  157.6812 H       1  UNL1        0.1578
      7 C         144.0754  133.0617  156.1221 C.ar    1  UNL1        0.0588
      8 C         143.7782  134.3656  156.8014 C.ar    1  UNL1        0.0495
      9 C         142.6155  135.1987  156.3497 C.ar    1  UNL1        0.1366
     10 N         141.7499  134.7279  155.2187 N.ar    1  UNL1       -0.2282
     11 C         142.0471  133.4240  154.5394 C.ar    1  UNL1        0.1118
     12 C         143.2098  132.5909  154.9911 C.ar    1  UNL1        0.1007
     13 N         145.2381  132.2285  156.5737 N.pl3   1  UNL1       -0.3300
     14 H         146.0009  132.0793  155.9695 H       1  UNL1        0.1469
     15 C         145.2385  131.6227  157.9459 C.3     1  UNL1        0.1196
     16 C         144.6609  130.2554  158.1623 C.3     1  UNL1        0.1634
     17 C         143.4454  128.2190  157.1012 C.3     1  UNL1        0.1742
     18 O         144.4307  129.3448  156.9927 O.3     1  UNL1       -0.3493
     19 C         143.5069  131.2869  154.3117 C.1     1  UNL1        0.1032
     20 N         143.8040  129.9830  153.6324 N.1     1  UNL1       -0.1907
     21 C         141.7242  139.1106  158.3877 C.ar    1  UNL1        0.1387
     22 C         140.3746  139.6009  157.9541 C.ar    1  UNL1        0.0345
     23 C         139.2545  139.6909  158.9476 C.ar    1  UNL1        0.0019
     24 C         139.4840  139.2905  160.3749 C.ar    1  UNL1        0.0187
     25 CA        140.8336  138.8001  160.8085 C.ar    1  UNL1        0.1224
     26 N         141.9537  138.7102  159.8150 N.ar    1  UNL1       -0.2272
     27 C         141.0631  138.3998  162.2358 C.2     1  UNL1        0.2529
     28 O         140.6914  137.0218  162.6972 O.2     1  UNL1       -0.2815
     29 C         138.3638  139.3805  161.3685 C.3     1  UNL1        0.1218
     30 N         138.2236  140.5987  162.2323 N.am    1  UNL1       -0.2728
     31 C         138.0627  141.9504  161.6023 C.3     1  UNL1        0.1111
     32 C         137.9224  143.1686  162.4662 C.3     1  UNL1        0.0943
     33 N         137.9431  143.0351  163.9601 N.3     1  UNL1       -0.2623
     34 C         137.8028  144.2533  164.8240 C.3     1  UNL1        0.0901
     35 C         138.1039  141.6833  164.5901 C.3     1  UNL1        0.1587
     36 C         138.2442  140.4651  163.7262 C.2     1  UNL1        0.2423
     37 O         138.4051  139.1134  164.3562 O.2     1  UNL1       -0.2733
@<TRIPOS>BOND
     1    17    18    1
     2    18    16    1
     3    16    15    1
     4    15    13    1
     5    13     7    1
     6     7     8   ar
     7     8     9   ar
     8     9     1    1
     9     1     2   am
    10     2     3    2
    11     2     4   am
    12     4     5    1
    13     4    21    1
    14    21    22   ar
    15    22    23   ar
    16    23    24   ar
    17    24    29    1
    18    29    30    1
    19    30    31    1
    20    31    32    1
    21    32    33    1
    22    33    34    1
    23    33    35    1
    24    35    36    1
    25    36    37    2
    26    24    25   ar
    27    25    27    1
    28    27    28    2
    29    25    26   ar
    30     9    10   ar
    31    10    11   ar
    32    11    12   ar
    33    12    19    1
    34    19    20    3
    35    12     7   ar
    36    26    21   ar
    37    36    30   am
    38    13    14    1
    39     1     6    1
@<TRIPOS>MOLECULE
*****
 37 39 0 0 0
SMALL
GASTEIGER

@<TRIPOS>ATOM
      1 N         140.9877  142.9004  164.3234 N.am    1  UNL1       -0.2531
      2 C         140.2778  144.1583  163.9188 C.2     1  UNL1        0.3136
      3 O         139.2741  144.7832  164.8420 O.2     1  UNL1       -0.2518
      4 N         140.5716  144.7914  162.5911 N.am    1  UNL1       -0.2262
      5 C         139.8617  146.0493  162.1865 C.3     1  UNL1        0.1231
      6 H         141.6465  142.4903  163.7175 H       1  UNL1        0.1578
      7 C         139.5456  140.4035  167.0503 C.ar    1  UNL1        0.0588
      8 C         139.8394  141.0366  165.7226 C.ar    1  UNL1        0.0495
      9 C         140.6939  142.2673  165.6512 C.ar    1  UNL1        0.1366
     10 N         141.2546  142.8650  166.9075 N.ar    1  UNL1       -0.2282
     11 C         140.9608  142.2319  168.2352 C.ar    1  UNL1        0.1118
     12 C         140.1063  141.0012  168.3066 C.ar    1  UNL1        0.1007
     13 N         138.6911  139.1728  167.1217 N.pl3   1  UNL1       -0.3300
     14 H         138.5042  138.7531  167.9924 H       1  UNL1        0.1469
     15 C         138.1214  138.5814  165.8665 C.3     1  UNL1        0.1196
     16 C         138.9125  137.5741  165.0857 C.3     1  UNL1        0.1634
     17 C         138.7695  137.7989  162.5013 C.3     1  UNL1        0.1742
     18 O         139.5385  137.9618  163.7788 O.3     1  UNL1       -0.3493
     19 C         139.8125  140.3681  169.6344 C.1     1  UNL1        0.1032
     20 N         139.5187  139.7351  170.9622 N.1     1  UNL1       -0.1907
     21 C         141.5753  144.1666  161.6679 C.ar    1  UNL1        0.1387
     22 C         141.3133  144.1265  160.1915 C.ar    1  UNL1        0.0345
     23 C         142.3170  143.5017  159.2684 C.ar    1  UNL1        0.0019
     24 C         143.5827  142.9169  159.8217 C.ar    1  UNL1        0.0187
     25 CA        143.8447  142.9570  161.2980 C.ar    1  UNL1        0.1224
     26 N         142.8410  143.5818  162.2211 N.ar    1  UNL1       -0.2272
     27 C         145.1104  142.3723  161.8513 C.2     1  UNL1        0.2529
     28 O         145.1400  140.9435  162.3070 O.2     1  UNL1       -0.2815
     29 C         144.5864  142.2921  158.8985 C.3     1  UNL1        0.1218
     30 N         144.1228  141.4970  157.7141 N.am    1  UNL1       -0.2728
     31 C         144.0236  142.1477  156.3662 C.3     1  UNL1        0.1111
     32 C         143.5600  141.3526  155.1818 C.3     1  UNL1        0.0943
     33 N         143.1958  139.9066  155.3452 N.3     1  UNL1       -0.2623
     34 C         142.7322  139.1115  154.1608 C.3     1  UNL1        0.0901
     35 C         143.2950  139.2559  156.6930 C.3     1  UNL1        0.1587
     36 C         143.7586  140.0511  157.8775 C.2     1  UNL1        0.2423
     37 O         143.8579  139.4004  159.2253 O.2     1  UNL1       -0.2733
@<TRIPOS>BOND
     1    17    18    1
     2    18    16    1
     3    16    15    1
     4    15    13    1
     5    13     7    1
     6     7     8   ar
     7     8     9   ar
     8     9     1    1
     9     1     2   am
    10     2     3    2
    11     2     4   am
    12     4     5    1
    13     4    21    1
    14    21    22   ar
    15    22    23   ar
    16    23    24   ar
    17    24    29    1
    18    29    30    1
    19    30    31    1
    20    31    32    1
    21    32    33    1
    22    33    34    1
    23    33    35    1
    24    35    36    1
    25    36    37    2
    26    24    25   ar
    27    25    27    1
    28    27    28    2
    29    25    26   ar
    30     9    10   ar
    31    10    11   ar
    32    11    12   ar
    33    12    19    1
    34    19    20    3
    35    12     7   ar
    36    26    21   ar
    37    36    30   am
    38    13    14    1
    39     1     6    1
@<TRIPOS>MOLECULE
*****
 37 39 0 0 0
SMALL
GASTEIGER

@<TRIPOS>ATOM
      1 N         141.3619  138.0793  159.5030 N.am    1  UNL1       -0.2531
      2 C         140.3465  139.0409  158.9604 C.2     1  UNL1        0.3136
      3 O         139.7427  140.0799  159.8582 O.2     1  UNL1       -0.2518
      4 N         139.9350  138.9636  157.5201 N.am    1  UNL1       -0.2262
      5 C         138.9197  139.9252  156.9775 C.3     1  UNL1        0.1231
      6 H         141.7581  137.3974  158.9138 H       1  UNL1        0.1578
      7 C         143.4877  138.8764  162.7581 C.ar    1  UNL1        0.0588
      8 C         143.0762  138.7990  161.3178 C.ar    1  UNL1        0.0495
      9 C         141.7734  138.1567  160.9435 C.ar    1  UNL1        0.1366
     10 N         140.8821  137.5917  162.0095 N.ar    1  UNL1       -0.2282
     11 C         141.2937  137.6691  163.4498 C.ar    1  UNL1        0.1118
     12 C         142.5965  138.3115  163.8241 C.ar    1  UNL1        0.1007
     13 N         144.7905  139.5187  163.1324 N.pl3   1  UNL1       -0.3300
     14 H         145.4963  138.9852  163.5642 H       1  UNL1        0.1469
     15 C         145.0180  140.9740  162.8488 C.3     1  UNL1        0.1196
     16 C         145.6707  141.8460  163.8801 C.3     1  UNL1        0.1634
     17 C         143.6436  142.1332  165.4797 C.3     1  UNL1        0.1742
     18 O         144.8300  142.7140  164.7690 O.3     1  UNL1       -0.3493
     19 C         143.0080  138.3888  165.2645 C.1     1  UNL1        0.1032
     20 N         143.4195  138.4662  166.7049 N.1     1  UNL1       -0.1907
     21 C         140.5388  137.9246  156.6223 C.ar    1  UNL1        0.1387
     22 C         139.6552  137.0768  155.7560 C.ar    1  UNL1        0.0345
     23 C         140.2590  136.0379  154.8583 C.ar    1  UNL1        0.0019
     24 C         141.7464  135.8467  154.8268 C.ar    1  UNL1        0.0187
     25 CA        142.6300  136.6945  155.6930 C.ar    1  UNL1        0.1224
     26 N         142.0262  137.7334  156.5908 N.ar    1  UNL1       -0.2272
     27 C         144.1175  136.5033  155.6616 C.2     1  UNL1        0.2529
     28 O         145.0246  137.6934  155.5588 O.2     1  UNL1       -0.2815
     29 C         142.3502  134.8077  153.9290 C.3     1  UNL1        0.1218
     30 N         141.7076  133.4580  153.8058 N.am    1  UNL1       -0.2728
     31 C         141.1746  132.9991  152.4809 C.3     1  UNL1        0.1111
     32 C         140.5321  131.6494  152.3577 C.3     1  UNL1        0.0943
     33 N         140.4225  130.7583  153.5594 N.3     1  UNL1       -0.2623
     34 C         139.7799  129.4086  153.4362 C.3     1  UNL1        0.0901
     35 C         140.9555  131.2172  154.8843 C.3     1  UNL1        0.1587
     36 C         141.5981  132.5670  155.0075 C.2     1  UNL1        0.2423
     37 O         142.1311  133.0258  156.3324 O.2     1  UNL1       -0.2733
@<TRIPOS>BOND
     1    17    18    1
     2    18    16    1
     3    16    15    1
     4    15    13    1
     5    13     7    1
     6     7     8   ar
     7     8     9   ar
     8     9     1    1
     9     1     2   am
    10     2     3    2
    11     2     4   am
    12     4     5    1
    13     4    21    1
    14    21    22   ar
    15    22    23   ar
    16    23    24   ar
    17    24    29    1
    18    29    30    1
    19    30    31    1
    20    31    32    1
    21    32    33    1
    22    33    34    1
    23    33    35    1
    24    35    36    1
    25    36    37    2
    26    24    25   ar
    27    25    27    1
    28    27    28    2
    29    25    26   ar
    30     9    10   ar
    31    10    11   ar
    32    11    12   ar
    33    12    19    1
    34    19    20    3
    35    12     7   ar
    36    26    21   ar
    37    36    30   am
    38    13    14    1
    39     1     6    1
@<TRIPOS>MOLECULE
*****
 37 39 0 0 0
SMALL
GASTEIGER

@<TRIPOS>ATOM
      1 N         141.8975  142.2600  164.3894 N.am    1  UNL1       -0.2531
      2 C         143.3384  141.9912  164.0708 C.2     1  UNL1        0.3136
      3 O         144.1984  141.2520  165.0526 O.2     1  UNL1       -0.2518
      4 N         143.9193  142.4617  162.7704 N.am    1  UNL1       -0.2262
      5 C         145.3602  142.1930  162.4517 C.3     1  UNL1        0.1231
      6 H         141.3330  142.7452  163.7451 H       1  UNL1        0.1578
      7 C         139.6971  140.2367  166.9999 C.ar    1  UNL1        0.0588
      8 C         140.2780  140.7073  165.6995 C.ar    1  UNL1        0.0495
      9 C         141.3166  141.7895  165.6900 C.ar    1  UNL1        0.1366
     10 N         141.7743  142.4011  166.9808 N.ar    1  UNL1       -0.2282
     11 C         141.1934  141.9306  168.2812 C.ar    1  UNL1        0.1118
     12 C         140.1548  140.8484  168.2908 C.ar    1  UNL1        0.1007
     13 N         138.6585  139.1545  167.0095 N.pl3   1  UNL1       -0.3300
     14 H         138.3023  138.8217  167.8648 H       1  UNL1        0.1469
     15 C         138.1625  138.5795  165.7159 C.3     1  UNL1        0.1196
     16 C         138.9041  137.4503  165.0639 C.3     1  UNL1        0.1634
     17 C         138.8218  137.8600  162.4996 C.3     1  UNL1        0.1742
     18 O         139.6124  137.6719  163.7604 O.3     1  UNL1       -0.3493
     19 C         139.5739  140.3778  169.5913 C.1     1  UNL1        0.1032
     20 N         138.9931  139.9074  170.8917 N.1     1  UNL1       -0.1907
     21 C         143.0593  143.2010  161.7885 C.ar    1  UNL1        0.1387
     22 C         143.2234  142.9597  160.3172 C.ar    1  UNL1        0.0345
     23 C         142.3635  143.6990  159.3355 C.ar    1  UNL1        0.0019
     24 C         141.3393  144.6796  159.8250 C.ar    1  UNL1        0.0187
     25 CA        141.1752  144.9208  161.2964 C.ar    1  UNL1        0.1224
     26 N         142.0352  144.1816  162.2781 N.ar    1  UNL1       -0.2272
     27 C         140.1511  145.9014  161.7859 C.2     1  UNL1        0.2529
     28 O         138.7287  145.4663  161.9798 O.2     1  UNL1       -0.2815
     29 C         140.4793  145.4188  158.8432 C.3     1  UNL1        0.1218
     30 N         139.8064  144.6759  157.7273 N.am    1  UNL1       -0.2728
     31 C         139.1105  143.3763  158.0041 C.3     1  UNL1        0.1111
     32 C         138.4376  142.6333  156.8883 C.3     1  UNL1        0.0943
     33 N         138.4606  143.1900  155.4955 N.3     1  UNL1       -0.2623
     34 C         137.7878  142.4470  154.3797 C.3     1  UNL1        0.0901
     35 C         139.1566  144.4896  155.2187 C.3     1  UNL1        0.1587
     36 C         139.8295  145.2326  156.3347 C.2     1  UNL1        0.2423
     37 O         140.5254  146.5322  156.0579 O.2     1  UNL1       -0.2733
@<TRIPOS>BOND
     1    17    18    1
     2    18    16    1
     3    16    15    1
     4    15    13    1
     5    13     7    1
     6     7     8   ar
     7     8     9   ar
     8     9     1    1
     9     1     2   am
    10     2     3    2
    11     2     4   am
    12     4     5    1
    13     4    21    1
    14    21    22   ar
    15    22    23   ar
    16    23    24   ar
    17    24    29    1
    18    29    30    1
    19    30    31    1
    20    31    32    1
    21    32    33    1
    22    33    34    1
    23    33    35    1
    24    35    36    1
    25    36    37    2
    26    24    25   ar
    27    25    27    1
    28    27    28    2
    29    25    26   ar
    30     9    10   ar
    31    10    11   ar
    32    11    12   ar
    33    12    19    1
    34    19    20    3
    35    12     7   ar
    36    26    21   ar
    37    36    30   am
    38    13    14    1
    39     1     6    1
@<TRIPOS>MOLECULE
*****
 37 39 0 0 0
SMALL
GASTEIGER

@<TRIPOS>ATOM
      1 N         142.1803  136.4993  157.1515 N.am    1  UNL1       -0.2531
      2 C         143.0124  137.7331  156.9633 C.2     1  UNL1        0.3136
      3 O         144.1679  137.7197  156.0067 O.2     1  UNL1       -0.2518
      4 N         142.6891  138.9802  157.7315 N.am    1  UNL1       -0.2262
      5 C         143.5212  140.2140  157.5432 C.3     1  UNL1        0.1231
      6 H         141.4220  136.5081  157.7793 H       1  UNL1        0.1578
      7 C         143.9872  133.1490  156.0287 C.ar    1  UNL1        0.0588
      8 C         143.6639  134.3961  156.7969 C.ar    1  UNL1        0.0495
      9 C         142.5037  135.2522  156.3832 C.ar    1  UNL1        0.1366
     10 N         141.6669  134.8612  155.2014 N.ar    1  UNL1       -0.2282
     11 C         141.9903  133.6141  154.4332 C.ar    1  UNL1        0.1118
     12 C         143.1504  132.7580  154.8468 C.ar    1  UNL1        0.1007
     13 N         145.1474  132.2929  156.4424 N.pl3   1  UNL1       -0.3300
     14 H         145.9479  132.2396  155.8718 H       1  UNL1        0.1469
     15 C         145.0879  131.5181  157.7253 C.3     1  UNL1        0.1196
     16 C         144.2095  130.3067  157.8299 C.3     1  UNL1        0.1634
     17 C         142.9852  128.4875  156.4365 C.3     1  UNL1        0.1742
     18 O         144.2260  129.2723  156.7436 O.3     1  UNL1       -0.3493
     19 C         143.4738  131.5109  154.0786 C.1     1  UNL1        0.1032
     20 N         143.7971  130.2638  153.3103 N.1     1  UNL1       -0.1907
     21 C         141.5337  138.9936  158.6880 C.ar    1  UNL1        0.1387
     22 C         141.6531  138.3104  160.0180 C.ar    1  UNL1        0.0345
     23 C         140.4977  138.3238  160.9744 C.ar    1  UNL1        0.0019
     24 C         139.2229  139.0204  160.6008 C.ar    1  UNL1        0.0187
     25 CA        139.1034  139.7035  159.2708 C.ar    1  UNL1        0.1224
     26 N         140.2588  139.6901  158.3144 N.ar    1  UNL1       -0.2272
     27 C         137.8286  140.4001  158.8973 C.2     1  UNL1        0.2529
     28 O         137.3184  140.3260  157.4887 O.2     1  UNL1       -0.2815
     29 C         138.0674  139.0337  161.5574 C.3     1  UNL1        0.1218
     30 N         138.3132  139.1966  163.0281 N.am    1  UNL1       -0.2728
     31 C         138.7710  138.0256  163.8462 C.3     1  UNL1        0.1111
     32 C         139.0167  138.1885  165.3169 C.3     1  UNL1        0.0943
     33 N         138.8046  139.5223  165.9696 N.3     1  UNL1       -0.2623
     34 C         139.0503  139.6851  167.4403 C.3     1  UNL1        0.0901
     35 C         138.3468  140.6933  165.1515 C.3     1  UNL1        0.1587
     36 C         138.1010  140.5304  163.6807 C.2     1  UNL1        0.2423
     37 O         137.6432  141.7013  162.8626 O.2     1  UNL1       -0.2733
@<TRIPOS>BOND
     1    17    18    1
     2    18    16    1
     3    16    15    1
     4    15    13    1
     5    13     7    1
     6     7     8   ar
     7     8     9   ar
     8     9     1    1
     9     1     2   am
    10     2     3    2
    11     2     4   am
    12     4     5    1
    13     4    21    1
    14    21    22   ar
    15    22    23   ar
    16    23    24   ar
    17    24    29    1
    18    29    30    1
    19    30    31    1
    20    31    32    1
    21    32    33    1
    22    33    34    1
    23    33    35    1
    24    35    36    1
    25    36    37    2
    26    24    25   ar
    27    25    27    1
    28    27    28    2
    29    25    26   ar
    30     9    10   ar
    31    10    11   ar
    32    11    12   ar
    33    12    19    1
    34    19    20    3
    35    12     7   ar
    36    26    21   ar
    37    36    30   am
    38    13    14    1
    39     1     6    1
@<TRIPOS>MOLECULE
*****
 37 39 0 0 0
SMALL
GASTEIGER

@<TRIPOS>ATOM
      1 N         143.2877  137.9840  156.9825 N.am    1  UNL1       -0.2531
      2 C         143.8785  138.9291  155.9787 C.2     1  UNL1        0.3136
      3 O         143.9669  138.5311  154.5351 O.2     1  UNL1       -0.2518
      4 N         144.3810  140.2723  156.4184 N.am    1  UNL1       -0.2262
      5 C         144.9718  141.2175  155.4146 C.3     1  UNL1        0.1231
      6 H         143.2298  138.2452  157.9299 H       1  UNL1        0.1578
      7 C         142.7590  134.0552  156.7955 C.ar    1  UNL1        0.0588
      8 C         143.2614  135.3983  157.2352 C.ar    1  UNL1        0.0495
      9 C         142.7853  136.6407  156.5427 C.ar    1  UNL1        0.1366
     10 N         141.8067  136.5400  155.4104 N.ar    1  UNL1       -0.2282
     11 C         141.3042  135.1968  154.9707 C.ar    1  UNL1        0.1118
     12 C         141.7804  133.9544  155.6632 C.ar    1  UNL1        0.1007
     13 N         143.2352  132.8127  157.4881 N.pl3   1  UNL1       -0.3300
     14 H         142.6022  132.2642  158.0055 H       1  UNL1        0.1469
     15 C         144.6758  132.4061  157.3924 C.3     1  UNL1        0.1196
     16 C         145.1202  131.4688  156.3089 C.3     1  UNL1        0.1634
     17 C         144.4703  129.9568  154.2985 C.3     1  UNL1        0.1742
     18 O         144.1145  130.6098  155.6012 O.3     1  UNL1       -0.3493
     19 C         141.2780  132.6112  155.2235 C.1     1  UNL1        0.1032
     20 N         140.7755  131.2680  154.7837 N.1     1  UNL1       -0.1907
     21 C         144.2927  140.6704  157.8619 C.ar    1  UNL1        0.1387
     22 C         144.4426  142.1106  158.2533 C.ar    1  UNL1        0.0345
     23 C         144.3542  142.5086  159.6968 C.ar    1  UNL1        0.0019
     24 C         144.1160  141.4664  160.7489 C.ar    1  UNL1        0.0187
     25 CA        143.9661  140.0261  160.3576 C.ar    1  UNL1        0.1224
     26 N         144.0544  139.6281  158.9141 N.ar    1  UNL1       -0.2272
     27 C         143.7279  138.9839  161.4097 C.2     1  UNL1        0.2529
     28 O         143.2219  137.6267  161.0200 O.2     1  UNL1       -0.2815
     29 C         144.0277  141.8644  162.1925 C.3     1  UNL1        0.1218
     30 N         142.8245  142.6069  162.6935 N.am    1  UNL1       -0.2728
     31 C         141.5668  141.8600  163.0256 C.3     1  UNL1        0.1111
     32 C         140.3636  142.6025  163.5265 C.3     1  UNL1        0.0943
     33 N         140.4181  144.0920  163.6955 N.3     1  UNL1       -0.2623
     34 C         139.2150  144.8345  164.1965 C.3     1  UNL1        0.0901
     35 C         141.6758  144.8389  163.3634 C.3     1  UNL1        0.1587
     36 C         142.8790  144.0963  162.8624 C.2     1  UNL1        0.2423
     37 O         144.1368  144.8433  162.5304 O.2     1  UNL1       -0.2733
@<TRIPOS>BOND
     1    17    18    1
     2    18    16    1
     3    16    15    1
     4    15    13    1
     5    13     7    1
     6     7     8   ar
     7     8     9   ar
     8     9     1    1
     9     1     2   am
    10     2     3    2
    11     2     4   am
    12     4     5    1
    13     4    21    1
    14    21    22   ar
    15    22    23   ar
    16    23    24   ar
    17    24    29    1
    18    29    30    1
    19    30    31    1
    20    31    32    1
    21    32    33    1
    22    33    34    1
    23    33    35    1
    24    35    36    1
    25    36    37    2
    26    24    25   ar
    27    25    27    1
    28    27    28    2
    29    25    26   ar
    30     9    10   ar
    31    10    11   ar
    32    11    12   ar
    33    12    19    1
    34    19    20    3
    35    12     7   ar
    36    26    21   ar
    37    36    30   am
    38    13    14    1
    39     1     6    1
@<TRIPOS>MOLECULE
*****
 37 39 0 0 0
SMALL
GASTEIGER

@<TRIPOS>ATOM
      1 N         142.7474  137.3398  158.3777 N.am    1  UNL1       -0.2531
      2 C         143.2599  138.7302  158.1452 C.2     1  UNL1        0.3136
      3 O         143.6484  139.1651  156.7632 O.2     1  UNL1       -0.2518
      4 N         143.3840  139.6857  159.2948 N.am    1  UNL1       -0.2262
      5 C         143.8965  141.0762  159.0624 C.3     1  UNL1        0.1231
      6 H         142.4924  137.0543  159.2847 H       1  UNL1        0.1578
      7 C         143.4381  134.2642  155.9665 C.ar    1  UNL1        0.0588
      8 C         143.5621  135.2197  157.1160 C.ar    1  UNL1        0.0495
      9 C         142.6233  136.3842  157.2280 C.ar    1  UNL1        0.1366
     10 N         141.5605  136.5932  156.1904 N.ar    1  UNL1       -0.2282
     11 C         141.4365  135.6377  155.0409 C.ar    1  UNL1        0.1118
     12 C         142.3753  134.4732  154.9289 C.ar    1  UNL1        0.1007
     13 N         144.3769  133.0997  155.8545 N.pl3   1  UNL1       -0.3300
     14 H         144.9496  133.0037  155.0595 H       1  UNL1        0.1469
     15 C         144.4432  132.0814  156.9538 C.3     1  UNL1        0.1196
     16 C         143.5406  130.8837  156.9222 C.3     1  UNL1        0.1634
     17 C         141.8936  129.8317  155.2103 C.3     1  UNL1        0.1742
     18 O         142.2500  130.9371  156.1595 O.3     1  UNL1       -0.3493
     19 C         142.2512  133.5176  153.7792 C.1     1  UNL1        0.1032
     20 N         142.1271  132.5621  152.6297 N.1     1  UNL1       -0.1907
     21 C         142.9955  139.2508  160.6769 C.ar    1  UNL1        0.1387
     22 C         143.9862  139.3457  161.7992 C.ar    1  UNL1        0.0345
     23 C         143.5977  138.9109  163.1812 C.ar    1  UNL1        0.0019
     24 C         142.2186  138.3811  163.4408 C.ar    1  UNL1        0.0187
     25 CA        141.2279  138.2862  162.3185 C.ar    1  UNL1        0.1224
     26 N         141.6164  138.7211  160.9366 N.ar    1  UNL1       -0.2272
     27 C         139.8488  137.7565  162.5782 C.2     1  UNL1        0.2529
     28 O         138.7014  138.1989  161.7194 O.2     1  UNL1       -0.2815
     29 C         141.8301  137.9462  164.8229 C.3     1  UNL1        0.1218
     30 N         141.5159  138.9719  165.8713 N.am    1  UNL1       -0.2728
     31 C         140.2577  139.7827  165.7741 C.3     1  UNL1        0.1111
     32 C         139.9434  140.8083  166.8225 C.3     1  UNL1        0.0943
     33 N         140.8874  141.0232  167.9683 N.3     1  UNL1       -0.2623
     34 C         140.5732  142.0489  169.0167 C.3     1  UNL1        0.0901
     35 C         142.1457  140.2124  168.0656 C.3     1  UNL1        0.1587
     36 C         142.4599  139.1867  167.0170 C.2     1  UNL1        0.2423
     37 O         143.7181  138.3759  167.1143 O.2     1  UNL1       -0.2733
@<TRIPOS>BOND
     1    17    18    1
     2    18    16    1
     3    16    15    1
     4    15    13    1
     5    13     7    1
     6     7     8   ar
     7     8     9   ar
     8     9     1    1
     9     1     2   am
    10     2     3    2
    11     2     4   am
    12     4     5    1
    13     4    21    1
    14    21    22   ar
    15    22    23   ar
    16    23    24   ar
    17    24    29    1
    18    29    30    1
    19    30    31    1
    20    31    32    1
    21    32    33    1
    22    33    34    1
    23    33    35    1
    24    35    36    1
    25    36    37    2
    26    24    25   ar
    27    25    27    1
    28    27    28    2
    29    25    26   ar
    30     9    10   ar
    31    10    11   ar
    32    11    12   ar
    33    12    19    1
    34    19    20    3
    35    12     7   ar
    36    26    21   ar
    37    36    30   am
    38    13    14    1
    39     1     6    1
