@<TRIPOS>MOLECULE
*****
 39 42 0 0 0
SMALL
GASTEIGER

@<TRIPOS>ATOM
      1 C         144.0393  141.2504  160.5814 C.ar    1  UNL1        0.0655
      2 C         143.5779  140.1126  161.4431 C.ar    1  UNL1        0.0337
      3 C         143.0852  138.8447  160.8109 C.ar    1  UNL1        0.0862
      4 C         143.0540  138.7146  159.3169 C.ar    1  UNL1        0.1534
      5 C         143.5155  139.8524  158.4551 C.ar    1  UNL1        0.0539
      6 C         144.0081  141.1203  159.0874 C.ar    1  UNL1        0.0647
      7 C         143.6306  143.3042  162.1191 C.2     1  UNL1        0.2497
      8 O         142.6010  143.0610  162.3956 O.2     1  UNL1       -0.2698
      9 N         144.5320  142.5183  161.2138 N.am    1  UNL1       -0.2794
     10 H         145.4469  142.8345  161.0346 H       1  UNL1        0.1552
     11 C         143.4465  145.1113  163.9768 C.2     1  UNL1        0.0048
     12 C         144.1232  144.5721  162.7515 C.2     1  UNL1        0.0580
     13 N         142.6238  137.7070  161.6726 N.pl3   1  UNL1       -0.2801
     14 H         143.0271  136.8151  161.5678 H       1  UNL1        0.1552
     15 C         141.5479  137.9282  162.6942 C.ar    1  UNL1        0.2208
     16 N         141.3410  136.9293  163.7939 N.ar    1  UNL1       -0.2111
     17 C         140.2651  137.1505  164.8154 C.ar    1  UNL1        0.1147
     18 C         139.3962  138.3707  164.7372 C.ar    1  UNL1        0.0945
     19 CL        138.3203  138.5919  165.7588 Cl      1  UNL1       -0.0790
     20 C         139.6031  139.3697  163.6375 C.ar    1  UNL1        0.0977
     21 N         140.6789  139.1484  162.6160 N.ar    1  UNL1       -0.2126
     22 C         138.7341  140.5898  163.5593 C.2     1  UNL1        0.0389
     23 C         137.5003  140.7412  162.7199 C.2     1  UNL1        0.1000
     24 N         136.9500  142.1178  162.9487 N.2     1  UNL1       -0.2478
     25 C         137.8438  142.8171  163.9296 C.2     1  UNL1        0.0634
     26 C         137.7960  144.1918  164.5278 C.3     1  UNL1        0.0717
     27 C         138.8509  144.6221  165.5035 C.2     1  UNL1       -0.0198
     28 C         139.9536  143.6778  165.8809 C.2     1  UNL1       -0.0041
     29 C         140.0013  142.3031  165.2827 C.2     1  UNL1        0.0010
     30 C         138.9464  141.8728  164.3070 C.2     1  UNL1        0.0169
     31 O         142.5613  137.4468  158.6846 O.3     1  UNL1       -0.4701
     32 C         142.3305  137.3877  157.2036 C.3     1  UNL1        0.2525
     33 N         144.4695  142.2580  158.2257 N.pl3   1  UNL1       -0.3033
     34 C         145.5005  142.5024  157.9547 C.3     1  UNL1        0.1123
     35 C         143.4681  143.2059  157.6353 C.3     1  UNL1        0.1082
     36 C         142.1871  143.4917  158.3616 C.3     1  UNL1        0.0938
     37 N         141.8053  144.9068  158.6803 N.3     1  UNL1       -0.2688
     38 C         142.0179  145.9883  157.6630 C.3     1  UNL1        0.0897
     39 C         141.2108  145.2405  160.0165 C.3     1  UNL1        0.0897
@<TRIPOS>BOND
     1    11    12    2
     2    12     7    1
     3     7     8    2
     4     7     9   am
     5     9     1    1
     6     1     2   ar
     7     2     3   ar
     8     3    13    1
     9    13    15    1
    10    15    16   ar
    11    16    17   ar
    12    17    18   ar
    13    18    19    1
    14    18    20   ar
    15    20    22    1
    16    22    23    2
    17    23    24    1
    18    24    25    2
    19    25    26    1
    20    26    27    1
    21    27    28    2
    22    28    29    1
    23    29    30    2
    24    20    21   ar
    25     3     4   ar
    26     4    31    1
    27    31    32    1
    28     4     5   ar
    29     5     6   ar
    30     6    33    1
    31    33    34    1
    32    33    35    1
    33    35    36    1
    34    36    37    1
    35    37    38    1
    36    37    39    1
    37     6     1   ar
    38    21    15   ar
    39    30    22    1
    40    30    25    1
    41     9    10    1
    42    13    14    1
@<TRIPOS>MOLECULE
*****
 39 42 0 0 0
SMALL
GASTEIGER

@<TRIPOS>ATOM
      1 C         142.7474  138.2748  158.0423 C.ar    1  UNL1        0.0655
      2 C         142.6202  137.6320  159.3915 C.ar    1  UNL1        0.0337
      3 C         143.1454  138.3333  160.6091 C.ar    1  UNL1        0.0862
      4 C         143.7977  139.6776  160.4773 C.ar    1  UNL1        0.1534
      5 C         143.9249  140.3205  159.1279 C.ar    1  UNL1        0.0539
      6 C         143.3997  139.6191  157.9105 C.ar    1  UNL1        0.0647
      7 C         143.1536  136.7823  155.9549 C.2     1  UNL1        0.2497
      8 O         144.2282  136.6408  156.0992 O.2     1  UNL1       -0.2698
      9 N         142.2223  137.5734  156.8248 N.am    1  UNL1       -0.2794
     10 H         141.2664  137.6322  156.5967 H       1  UNL1        0.1552
     11 C         142.7759  134.5938  154.6064 C.2     1  UNL1        0.0048
     12 C         142.6285  136.0808  154.7374 C.2     1  UNL1        0.0580
     13 N         143.0181  137.6904  161.9583 N.pl3   1  UNL1       -0.2801
     14 H         143.7175  137.0760  162.2787 H       1  UNL1        0.1552
     15 C         141.8254  137.9835  162.8194 C.ar    1  UNL1        0.2208
     16 N         141.4437  137.0376  163.9191 N.ar    1  UNL1       -0.2111
     17 C         140.2509  137.3307  164.7802 C.ar    1  UNL1        0.1147
     18 C         139.4399  138.5698  164.5415 C.ar    1  UNL1        0.0945
     19 CL        138.2472  138.8629  165.4026 Cl      1  UNL1       -0.0790
     20 C         139.8217  139.5158  163.4417 C.ar    1  UNL1        0.0977
     21 N         141.0144  139.2226  162.5807 N.ar    1  UNL1       -0.2126
     22 C         139.0107  140.7549  163.2031 C.2     1  UNL1        0.0389
     23 C         138.0120  140.9565  162.1022 C.2     1  UNL1        0.1000
     24 N         137.4401  142.3362  162.2422 N.2     1  UNL1       -0.2478
     25 C         138.0854  142.9872  163.4296 C.2     1  UNL1        0.0634
     26 C         137.9145  144.3436  164.0467 C.3     1  UNL1        0.0717
     27 C         138.7143  144.7227  165.2577 C.2     1  UNL1       -0.0198
     28 C         139.6850  143.7454  165.8516 C.2     1  UNL1       -0.0041
     29 C         139.8559  142.3890  165.2344 C.2     1  UNL1        0.0010
     30 C         139.0561  142.0099  164.0234 C.2     1  UNL1        0.0169
     31 O         144.3228  140.3790  161.6948 O.3     1  UNL1       -0.4701
     32 C         143.6183  141.5933  162.2231 C.3     1  UNL1        0.2525
     33 N         143.5270  140.2620  156.5613 N.pl3   1  UNL1       -0.3033
     34 C         142.7804  140.8787  156.0531 C.3     1  UNL1        0.1123
     35 C         144.7839  140.0857  155.7619 C.3     1  UNL1        0.1082
     36 C         145.5143  141.2867  155.2383 C.3     1  UNL1        0.0938
     37 N         146.6418  141.8822  156.0284 N.3     1  UNL1       -0.2688
     38 C         148.0451  141.8108  155.5035 C.3     1  UNL1        0.0897
     39 C         146.3659  142.5492  157.3433 C.3     1  UNL1        0.0897
@<TRIPOS>BOND
     1    11    12    2
     2    12     7    1
     3     7     8    2
     4     7     9   am
     5     9     1    1
     6     1     2   ar
     7     2     3   ar
     8     3    13    1
     9    13    15    1
    10    15    16   ar
    11    16    17   ar
    12    17    18   ar
    13    18    19    1
    14    18    20   ar
    15    20    22    1
    16    22    23    2
    17    23    24    1
    18    24    25    2
    19    25    26    1
    20    26    27    1
    21    27    28    2
    22    28    29    1
    23    29    30    2
    24    20    21   ar
    25     3     4   ar
    26     4    31    1
    27    31    32    1
    28     4     5   ar
    29     5     6   ar
    30     6    33    1
    31    33    34    1
    32    33    35    1
    33    35    36    1
    34    36    37    1
    35    37    38    1
    36    37    39    1
    37     6     1   ar
    38    21    15   ar
    39    30    22    1
    40    30    25    1
    41     9    10    1
    42    13    14    1
@<TRIPOS>MOLECULE
*****
 39 42 0 0 0
SMALL
GASTEIGER

@<TRIPOS>ATOM
      1 C         142.7295  138.3006  157.9733 C.ar    1  UNL1        0.0655
      2 C         142.5772  137.6160  159.2992 C.ar    1  UNL1        0.0337
      3 C         143.0713  138.2828  160.5488 C.ar    1  UNL1        0.0862
      4 C         143.7178  139.6342  160.4723 C.ar    1  UNL1        0.1534
      5 C         143.8701  140.3188  159.1463 C.ar    1  UNL1        0.0539
      6 C         143.3760  139.6519  157.8968 C.ar    1  UNL1        0.0647
      7 C         143.1835  136.8464  155.8688 C.2     1  UNL1        0.2497
      8 O         144.2503  136.6845  156.0461 O.2     1  UNL1       -0.2698
      9 N         142.2354  137.6337  156.7238 N.am    1  UNL1       -0.2794
     10 H         141.2888  137.7128  156.4650 H       1  UNL1        0.1552
     11 C         142.4174  134.7044  154.6137 C.2     1  UNL1        0.0048
     12 C         142.6895  136.1795  154.6193 C.2     1  UNL1        0.0580
     13 N         142.9189  137.5982  161.8747 N.pl3   1  UNL1       -0.2801
     14 H         143.5858  136.9351  162.1658 H       1  UNL1        0.1552
     15 C         141.7505  137.9239  162.7571 C.ar    1  UNL1        0.2208
     16 N         141.3679  136.9927  163.8691 N.ar    1  UNL1       -0.2111
     17 C         140.1995  137.3184  164.7515 C.ar    1  UNL1        0.1147
     18 C         139.4137  138.5754  164.5220 C.ar    1  UNL1        0.0945
     19 CL        138.2453  138.9011  165.4044 Cl      1  UNL1       -0.0790
     20 C         139.7964  139.5067  163.4100 C.ar    1  UNL1        0.0977
     21 N         140.9647  139.1809  162.5276 N.ar    1  UNL1       -0.2126
     22 C         139.0106  140.7636  163.1805 C.2     1  UNL1        0.0389
     23 C         138.0240  140.9972  162.0750 C.2     1  UNL1        0.1000
     24 N         137.4772  142.3856  162.2276 N.2     1  UNL1       -0.2478
     25 C         138.1258  143.0101  163.4273 C.2     1  UNL1        0.0634
     26 C         137.9758  144.3620  164.0595 C.3     1  UNL1        0.0717
     27 C         138.7736  144.7115  165.2808 C.2     1  UNL1       -0.0198
     28 C         139.7213  143.7090  165.8697 C.2     1  UNL1       -0.0041
     29 C         139.8713  142.3571  165.2375 C.2     1  UNL1        0.0010
     30 C         139.0735  142.0076  164.0163 C.2     1  UNL1        0.0169
     31 O         144.2119  140.3010  161.7218 O.3     1  UNL1       -0.4701
     32 C         144.1283  141.7924  161.8593 C.3     1  UNL1        0.2525
     33 N         143.5284  140.3365  156.5709 N.pl3   1  UNL1       -0.3033
     34 C         144.3842  140.2750  155.8930 C.3     1  UNL1        0.1123
     35 C         142.4311  141.2172  156.0510 C.3     1  UNL1        0.1082
     36 C         141.3665  140.6440  155.1632 C.3     1  UNL1        0.0938
     37 N         140.1661  139.9766  155.7663 N.3     1  UNL1       -0.2688
     38 C         139.4069  138.9478  154.9822 C.3     1  UNL1        0.0897
     39 C         139.7250  140.3381  157.1537 C.3     1  UNL1        0.0897
@<TRIPOS>BOND
     1    11    12    2
     2    12     7    1
     3     7     8    2
     4     7     9   am
     5     9     1    1
     6     1     2   ar
     7     2     3   ar
     8     3    13    1
     9    13    15    1
    10    15    16   ar
    11    16    17   ar
    12    17    18   ar
    13    18    19    1
    14    18    20   ar
    15    20    22    1
    16    22    23    2
    17    23    24    1
    18    24    25    2
    19    25    26    1
    20    26    27    1
    21    27    28    2
    22    28    29    1
    23    29    30    2
    24    20    21   ar
    25     3     4   ar
    26     4    31    1
    27    31    32    1
    28     4     5   ar
    29     5     6   ar
    30     6    33    1
    31    33    34    1
    32    33    35    1
    33    35    36    1
    34    36    37    1
    35    37    38    1
    36    37    39    1
    37     6     1   ar
    38    21    15   ar
    39    30    22    1
    40    30    25    1
    41     9    10    1
    42    13    14    1
@<TRIPOS>MOLECULE
*****
 39 42 0 0 0
SMALL
GASTEIGER

@<TRIPOS>ATOM
      1 C         140.8480  143.9364  160.6344 C.ar    1  UNL1        0.0655
      2 C         139.8057  143.2017  161.4241 C.ar    1  UNL1        0.0337
      3 C         138.7602  142.3922  160.7158 C.ar    1  UNL1        0.0862
      4 C         138.7571  142.3175  159.2177 C.ar    1  UNL1        0.1534
      5 C         139.7995  143.0522  158.4279 C.ar    1  UNL1        0.0539
      6 C         140.8449  143.8617  159.1363 C.ar    1  UNL1        0.0647
      7 C         142.9192  144.0626  162.1976 C.2     1  UNL1        0.2497
      8 O         143.0114  142.9890  162.3838 O.2     1  UNL1       -0.2698
      9 N         141.8934  144.7459  161.3428 N.am    1  UNL1       -0.2794
     10 H         141.9063  145.7256  161.2467 H       1  UNL1        0.1552
     11 C         143.8679  145.0911  164.3868 C.2     1  UNL1        0.0048
     12 C         143.9647  144.8720  162.9061 C.2     1  UNL1        0.0580
     13 N         137.7179  141.6575  161.5056 N.pl3   1  UNL1       -0.2801
     14 H         136.7736  141.9298  161.4476 H       1  UNL1        0.1552
     15 C         138.1143  140.5079  162.3838 C.ar    1  UNL1        0.2208
     16 N         138.1234  139.1124  161.8338 N.ar    1  UNL1       -0.2111
     17 C         138.5197  137.9627  162.7120 C.ar    1  UNL1        0.1147
     18 C         138.9070  138.2086  164.1401 C.ar    1  UNL1        0.0945
     19 CL        139.3034  137.0590  165.0183 Cl      1  UNL1       -0.0790
     20 C         138.8979  139.6042  164.6901 C.ar    1  UNL1        0.0977
     21 N         138.5015  140.7537  163.8119 N.ar    1  UNL1       -0.2126
     22 C         139.2851  139.8501  166.1182 C.2     1  UNL1        0.0389
     23 C         138.5524  139.3522  167.3287 C.2     1  UNL1        0.1000
     24 N         139.2875  139.8315  168.5452 N.2     1  UNL1       -0.2478
     25 C         140.4746  140.6255  168.0866 C.2     1  UNL1        0.0634
     26 C         141.5567  141.3395  168.8410 C.3     1  UNL1        0.0717
     27 C         142.6373  142.0650  168.0955 C.2     1  UNL1       -0.0198
     28 C         142.6359  142.0765  166.5955 C.2     1  UNL1       -0.0041
     29 C         141.5538  141.3625  165.8411 C.2     1  UNL1        0.0010
     30 C         140.4732  140.6370  166.5866 C.2     1  UNL1        0.0169
     31 O         137.7116  141.5080  158.5092 O.3     1  UNL1       -0.4701
     32 C         137.4002  141.7819  157.0677 C.3     1  UNL1        0.2525
     33 N         141.8872  144.5964  158.3465 N.pl3   1  UNL1       -0.3033
     34 C         141.8562  145.6423  158.0286 C.3     1  UNL1        0.1123
     35 C         143.1346  143.8876  157.9089 C.3     1  UNL1        0.1082
     36 C         143.6608  142.7328  158.7086 C.3     1  UNL1        0.0938
     37 N         143.6792  141.3556  158.1145 N.3     1  UNL1       -0.2688
     38 C         142.5461  140.4092  158.3797 C.3     1  UNL1        0.0897
     39 C         144.8307  140.9247  157.2552 C.3     1  UNL1        0.0897
@<TRIPOS>BOND
     1    11    12    2
     2    12     7    1
     3     7     8    2
     4     7     9   am
     5     9     1    1
     6     1     2   ar
     7     2     3   ar
     8     3    13    1
     9    13    15    1
    10    15    16   ar
    11    16    17   ar
    12    17    18   ar
    13    18    19    1
    14    18    20   ar
    15    20    22    1
    16    22    23    2
    17    23    24    1
    18    24    25    2
    19    25    26    1
    20    26    27    1
    21    27    28    2
    22    28    29    1
    23    29    30    2
    24    20    21   ar
    25     3     4   ar
    26     4    31    1
    27    31    32    1
    28     4     5   ar
    29     5     6   ar
    30     6    33    1
    31    33    34    1
    32    33    35    1
    33    35    36    1
    34    36    37    1
    35    37    38    1
    36    37    39    1
    37     6     1   ar
    38    21    15   ar
    39    30    22    1
    40    30    25    1
    41     9    10    1
    42    13    14    1
@<TRIPOS>MOLECULE
*****
 39 42 0 0 0
SMALL
GASTEIGER

@<TRIPOS>ATOM
      1 C         143.9344  142.8602  158.9808 C.ar    1  UNL1        0.0655
      2 C         144.5886  142.7520  160.3263 C.ar    1  UNL1        0.0337
      3 C         143.8285  143.1312  161.5626 C.ar    1  UNL1        0.0862
      4 C         142.4141  143.6185  161.4534 C.ar    1  UNL1        0.1534
      5 C         141.7598  143.7267  160.1079 C.ar    1  UNL1        0.0539
      6 C         142.5201  143.3476  158.8716 C.ar    1  UNL1        0.0647
      7 C         144.8177  141.0384  157.3528 C.2     1  UNL1        0.2497
      8 O         144.4021  140.1754  157.8803 O.2     1  UNL1       -0.2698
      9 N         144.6947  142.4810  157.7446 N.am    1  UNL1       -0.2794
     10 H         145.1128  143.1790  157.1903 H       1  UNL1        0.1552
     11 C         146.0354  141.7217  155.1618 C.2     1  UNL1        0.0048
     12 C         145.5780  140.6591  156.1166 C.2     1  UNL1        0.0580
     13 N         144.4827  143.0229  162.9080 N.pl3   1  UNL1       -0.2801
     14 H         145.0383  143.7620  163.2461 H       1  UNL1        0.1552
     15 C         144.2905  141.7886  163.7384 C.ar    1  UNL1        0.2208
     16 N         145.1857  140.6021  163.5366 N.ar    1  UNL1       -0.2111
     17 C         144.9935  139.3678  164.3670 C.ar    1  UNL1        0.1147
     18 C         143.9062  139.3200  165.3992 C.ar    1  UNL1        0.0945
     19 CL        143.7140  138.0857  166.2296 Cl      1  UNL1       -0.0790
     20 C         143.0110  140.5067  165.6010 C.ar    1  UNL1        0.0977
     21 N         143.2032  141.7409  164.7706 N.ar    1  UNL1       -0.2126
     22 C         141.9236  140.4589  166.6332 C.2     1  UNL1        0.0389
     23 C         141.9730  141.0850  167.9954 C.2     1  UNL1        0.1000
     24 N         140.6759  140.7897  168.6884 N.2     1  UNL1       -0.2478
     25 C         139.8249  139.9811  167.7546 C.2     1  UNL1        0.0634
     26 C         138.4474  139.4046  167.8967 C.3     1  UNL1        0.0717
     27 C         137.8412  138.6237  166.7687 C.2     1  UNL1       -0.0198
     28 C         138.6124  138.4192  165.4985 C.2     1  UNL1       -0.0041
     29 C         139.9898  138.9958  165.3563 C.2     1  UNL1        0.0010
     30 C         140.5961  139.7767  166.4843 C.2     1  UNL1        0.0169
     31 O         141.6539  143.9977  162.6897 O.3     1  UNL1       -0.4701
     32 C         140.4054  143.2533  163.0603 C.3     1  UNL1        0.2525
     33 N         141.8658  143.4558  157.5262 N.pl3   1  UNL1       -0.3033
     34 C         141.4193  142.6446  156.9443 C.3     1  UNL1        0.1123
     35 C         141.7758  144.7870  156.8408 C.3     1  UNL1        0.1082
     36 C         140.7365  145.7812  157.2668 C.3     1  UNL1        0.0938
     37 N         139.5633  146.0674  156.3772 N.3     1  UNL1       -0.2688
     38 C         139.0623  147.4731  156.2255 C.3     1  UNL1        0.0897
     39 C         138.8909  144.9480  155.6391 C.3     1  UNL1        0.0897
@<TRIPOS>BOND
     1    11    12    2
     2    12     7    1
     3     7     8    2
     4     7     9   am
     5     9     1    1
     6     1     2   ar
     7     2     3   ar
     8     3    13    1
     9    13    15    1
    10    15    16   ar
    11    16    17   ar
    12    17    18   ar
    13    18    19    1
    14    18    20   ar
    15    20    22    1
    16    22    23    2
    17    23    24    1
    18    24    25    2
    19    25    26    1
    20    26    27    1
    21    27    28    2
    22    28    29    1
    23    29    30    2
    24    20    21   ar
    25     3     4   ar
    26     4    31    1
    27    31    32    1
    28     4     5   ar
    29     5     6   ar
    30     6    33    1
    31    33    34    1
    32    33    35    1
    33    35    36    1
    34    36    37    1
    35    37    38    1
    36    37    39    1
    37     6     1   ar
    38    21    15   ar
    39    30    22    1
    40    30    25    1
    41     9    10    1
    42    13    14    1
@<TRIPOS>MOLECULE
*****
 39 42 0 0 0
SMALL
GASTEIGER

@<TRIPOS>ATOM
      1 C         138.8202  141.5984  159.9720 C.ar    1  UNL1        0.0655
      2 C         139.2040  140.3884  160.7712 C.ar    1  UNL1        0.0337
      3 C         139.6156  139.1270  160.0715 C.ar    1  UNL1        0.0862
      4 C         139.6433  139.0756  158.5726 C.ar    1  UNL1        0.1534
      5 C         139.2595  140.2857  157.7734 C.ar    1  UNL1        0.0539
      6 C         138.8480  141.5470  158.4732 C.ar    1  UNL1        0.0647
      7 C         138.1487  142.8473  162.1490 C.2     1  UNL1        0.2497
      8 O         138.2239  141.9897  162.8232 O.2     1  UNL1       -0.2698
      9 N         138.4087  142.8598  160.6718 N.am    1  UNL1       -0.2794
     10 H         138.3092  143.6958  160.1615 H       1  UNL1        0.1552
     11 C         137.8538  144.2109  164.3407 C.2     1  UNL1        0.0048
     12 C         137.7371  144.1086  162.8488 C.2     1  UNL1        0.0580
     13 N         139.9994  137.9171  160.8707 N.pl3   1  UNL1       -0.2801
     14 H         139.7271  137.0207  160.5682 H       1  UNL1        0.1552
     15 C         140.7980  138.0729  162.1308 C.ar    1  UNL1        0.2208
     16 N         140.6932  137.0440  163.2172 N.ar    1  UNL1       -0.2111
     17 C         141.4918  137.1998  164.4773 C.ar    1  UNL1        0.1147
     18 C         142.3953  138.3845  164.6510 C.ar    1  UNL1        0.0945
     19 CL        143.1939  138.5403  165.9111 Cl      1  UNL1       -0.0790
     20 C         142.5001  139.4135  163.5645 C.ar    1  UNL1        0.0977
     21 N         141.7015  139.2576  162.3045 N.ar    1  UNL1       -0.2126
     22 C         143.4035  140.5982  163.7383 C.2     1  UNL1        0.0389
     23 C         144.8951  140.5547  163.8911 C.2     1  UNL1        0.1000
     24 N         145.3874  141.9640  164.0369 N.2     1  UNL1       -0.2478
     25 C         144.2001  142.8786  163.9742 C.2     1  UNL1        0.0634
     26 C         144.0771  144.3710  164.0613 C.3     1  UNL1        0.0717
     27 C         142.7279  145.0192  163.9638 C.2     1  UNL1       -0.0198
     28 C         141.5018  144.1751  163.7792 C.2     1  UNL1       -0.0041
     29 C         141.6249  142.6827  163.6921 C.2     1  UNL1        0.0010
     30 C         142.9740  142.0345  163.7896 C.2     1  UNL1        0.0169
     31 O         140.0549  137.8143  157.8729 O.3     1  UNL1       -0.4701
     32 C         139.6354  137.5731  156.4531 C.3     1  UNL1        0.2525
     33 N         138.4642  142.7570  157.6740 N.pl3   1  UNL1       -0.3033
     34 C         137.5095  142.9389  157.1727 C.3     1  UNL1        0.1123
     35 C         139.4418  143.8810  157.4985 C.3     1  UNL1        0.1082
     36 C         140.8622  143.7172  157.9519 C.3     1  UNL1        0.0938
     37 N         141.2577  144.1232  159.3407 N.3     1  UNL1       -0.2688
     38 C         142.2242  143.2826  160.1212 C.3     1  UNL1        0.0897
     39 C         140.6867  145.3697  159.9489 C.3     1  UNL1        0.0897
@<TRIPOS>BOND
     1    11    12    2
     2    12     7    1
     3     7     8    2
     4     7     9   am
     5     9     1    1
     6     1     2   ar
     7     2     3   ar
     8     3    13    1
     9    13    15    1
    10    15    16   ar
    11    16    17   ar
    12    17    18   ar
    13    18    19    1
    14    18    20   ar
    15    20    22    1
    16    22    23    2
    17    23    24    1
    18    24    25    2
    19    25    26    1
    20    26    27    1
    21    27    28    2
    22    28    29    1
    23    29    30    2
    24    20    21   ar
    25     3     4   ar
    26     4    31    1
    27    31    32    1
    28     4     5   ar
    29     5     6   ar
    30     6    33    1
    31    33    34    1
    32    33    35    1
    33    35    36    1
    34    36    37    1
    35    37    38    1
    36    37    39    1
    37     6     1   ar
    38    21    15   ar
    39    30    22    1
    40    30    25    1
    41     9    10    1
    42    13    14    1
@<TRIPOS>MOLECULE
*****
 39 42 0 0 0
SMALL
GASTEIGER

@<TRIPOS>ATOM
      1 C         143.2616  139.9077  158.2301 C.ar    1  UNL1        0.0655
      2 C         144.0382  139.8157  159.5101 C.ar    1  UNL1        0.0337
      3 C         143.5260  138.9713  160.6392 C.ar    1  UNL1        0.0862
      4 C         142.2372  138.2190  160.4882 C.ar    1  UNL1        0.1534
      5 C         141.4605  138.3110  159.2082 C.ar    1  UNL1        0.0539
      6 C         141.9727  139.1553  158.0791 C.ar    1  UNL1        0.0647
      7 C         144.7576  140.1804  156.1237 C.2     1  UNL1        0.2497
      8 O         145.1757  139.1701  156.1252 O.2     1  UNL1       -0.2698
      9 N         143.7738  140.7520  157.1010 N.am    1  UNL1       -0.2794
     10 H         143.4642  141.6813  157.0015 H       1  UNL1        0.1552
     11 C         146.6827  141.5282  155.0155 C.2     1  UNL1        0.0048
     12 C         145.2699  141.0247  154.9946 C.2     1  UNL1        0.0580
     13 N         144.3027  138.8794  161.9191 N.pl3   1  UNL1       -0.2801
     14 H         144.7908  138.0536  162.1404 H       1  UNL1        0.1552
     15 C         144.3357  140.0457  162.8618 C.ar    1  UNL1        0.2208
     16 N         145.4902  141.0028  162.8306 N.ar    1  UNL1       -0.2111
     17 C         145.5232  142.1690  163.7734 C.ar    1  UNL1        0.1147
     18 C         144.4017  142.3781  164.7473 C.ar    1  UNL1        0.0945
     19 CL        144.4347  143.5444  165.6901 Cl      1  UNL1       -0.0790
     20 C         143.2472  141.4209  164.7785 C.ar    1  UNL1        0.0977
     21 N         143.2142  140.2548  163.8358 N.ar    1  UNL1       -0.2126
     22 C         142.1257  141.6300  165.7525 C.2     1  UNL1        0.0389
     23 C         140.9707  142.5711  165.5783 C.2     1  UNL1        0.1000
     24 N         140.0935  142.4574  166.7898 N.2     1  UNL1       -0.2478
     25 C         140.7064  141.4461  167.7126 C.2     1  UNL1        0.0634
     26 C         140.2831  140.9248  169.0539 C.3     1  UNL1        0.0717
     27 C         141.1158  139.8922  169.7541 C.2     1  UNL1       -0.0198
     28 C         142.3718  139.3808  169.1129 C.2     1  UNL1       -0.0041
     29 C         142.7951  139.9021  167.7717 C.2     1  UNL1        0.0010
     30 C         141.9624  140.9347  167.0715 C.2     1  UNL1        0.0169
     31 O         141.7249  137.3747  161.6173 O.3     1  UNL1       -0.4701
     32 C         140.5293  137.8213  162.4052 C.3     1  UNL1        0.2525
     33 N         141.1960  139.2472  156.7992 N.pl3   1  UNL1       -0.3033
     34 C         140.4253  139.9814  156.5484 C.3     1  UNL1        0.1123
     35 C         141.4471  138.2613  155.6971 C.3     1  UNL1        0.1082
     36 C         141.0404  136.8274  155.8664 C.3     1  UNL1        0.0938
     37 N         142.0755  135.7431  155.8141 N.3     1  UNL1       -0.2688
     38 C         143.5148  136.0664  156.0856 C.3     1  UNL1        0.0897
     39 C         141.6713  134.3353  155.4901 C.3     1  UNL1        0.0897
@<TRIPOS>BOND
     1    11    12    2
     2    12     7    1
     3     7     8    2
     4     7     9   am
     5     9     1    1
     6     1     2   ar
     7     2     3   ar
     8     3    13    1
     9    13    15    1
    10    15    16   ar
    11    16    17   ar
    12    17    18   ar
    13    18    19    1
    14    18    20   ar
    15    20    22    1
    16    22    23    2
    17    23    24    1
    18    24    25    2
    19    25    26    1
    20    26    27    1
    21    27    28    2
    22    28    29    1
    23    29    30    2
    24    20    21   ar
    25     3     4   ar
    26     4    31    1
    27    31    32    1
    28     4     5   ar
    29     5     6   ar
    30     6    33    1
    31    33    34    1
    32    33    35    1
    33    35    36    1
    34    36    37    1
    35    37    38    1
    36    37    39    1
    37     6     1   ar
    38    21    15   ar
    39    30    22    1
    40    30    25    1
    41     9    10    1
    42    13    14    1
@<TRIPOS>MOLECULE
*****
 39 42 0 0 0
SMALL
GASTEIGER

@<TRIPOS>ATOM
      1 C         138.3834  140.3520  158.2411 C.ar    1  UNL1        0.0655
      2 C         137.8042  140.4745  159.6193 C.ar    1  UNL1        0.0337
      3 C         138.2797  139.5682  160.7160 C.ar    1  UNL1        0.0862
      4 C         139.3343  138.5394  160.4344 C.ar    1  UNL1        0.1534
      5 C         139.9135  138.4169  159.0561 C.ar    1  UNL1        0.0539
      6 C         139.4380  139.3232  157.9595 C.ar    1  UNL1        0.0647
      7 C         136.5280  141.0926  156.5801 C.2     1  UNL1        0.2497
      8 O         135.7785  140.3551  156.8799 O.2     1  UNL1       -0.2698
      9 N         137.9079  141.2582  157.1445 N.am    1  UNL1       -0.2794
     10 H         138.5014  141.9617  156.7952 H       1  UNL1        0.1552
     11 C         135.5831  141.4192  154.1821 C.2     1  UNL1        0.0048
     12 C         136.0525  141.9988  155.4835 C.2     1  UNL1        0.0580
     13 N         137.7005  139.6908  162.0942 N.pl3   1  UNL1       -0.2801
     14 H         137.0926  138.9960  162.4363 H       1  UNL1        0.1552
     15 C         138.0473  140.8719  162.9513 C.ar    1  UNL1        0.2208
     16 N         137.1904  142.1025  162.9148 N.ar    1  UNL1       -0.2111
     17 C         137.5372  143.2836  163.7718 C.ar    1  UNL1        0.1147
     18 C         138.7410  143.2342  164.6654 C.ar    1  UNL1        0.0945
     19 CL        139.0878  144.4154  165.5224 Cl      1  UNL1       -0.0790
     20 C         139.5980  142.0036  164.7019 C.ar    1  UNL1        0.0977
     21 N         139.2511  140.8225  163.8449 N.ar    1  UNL1       -0.2126
     22 C         140.8018  141.9542  165.5955 C.2     1  UNL1        0.0389
     23 C         142.1487  142.5410  165.2934 C.2     1  UNL1        0.1000
     24 N         143.0493  142.2588  166.4593 N.2     1  UNL1       -0.2478
     25 C         142.2589  141.4975  167.4819 C.2     1  UNL1        0.0634
     26 C         142.6246  140.9514  168.8302 C.3     1  UNL1        0.0717
     27 C         141.6013  140.2170  169.6447 C.2     1  UNL1       -0.0198
     28 C         140.2122  140.0288  169.1108 C.2     1  UNL1       -0.0041
     29 C         139.8465  140.5749  167.7625 C.2     1  UNL1        0.0010
     30 C         140.8698  141.3092  166.9481 C.2     1  UNL1        0.0169
     31 O         139.8098  137.6331  161.5311 O.3     1  UNL1       -0.4701
     32 C         141.1251  137.8949  162.2030 C.3     1  UNL1        0.2525
     33 N         140.0172  139.2006  156.5813 N.pl3   1  UNL1       -0.3033
     34 C         140.9069  139.7051  156.1940 C.3     1  UNL1        0.1123
     35 C         139.3617  138.3090  155.5688 C.3     1  UNL1        0.1082
     36 C         139.6064  136.8295  155.6021 C.3     1  UNL1        0.0938
     37 N         140.6996  136.2312  154.7673 N.3     1  UNL1       -0.2688
     38 C         141.2648  136.9991  153.6093 C.3     1  UNL1        0.0897
     39 C         141.2277  134.8649  155.0904 C.3     1  UNL1        0.0897
@<TRIPOS>BOND
     1    11    12    2
     2    12     7    1
     3     7     8    2
     4     7     9   am
     5     9     1    1
     6     1     2   ar
     7     2     3   ar
     8     3    13    1
     9    13    15    1
    10    15    16   ar
    11    16    17   ar
    12    17    18   ar
    13    18    19    1
    14    18    20   ar
    15    20    22    1
    16    22    23    2
    17    23    24    1
    18    24    25    2
    19    25    26    1
    20    26    27    1
    21    27    28    2
    22    28    29    1
    23    29    30    2
    24    20    21   ar
    25     3     4   ar
    26     4    31    1
    27    31    32    1
    28     4     5   ar
    29     5     6   ar
    30     6    33    1
    31    33    34    1
    32    33    35    1
    33    35    36    1
    34    36    37    1
    35    37    38    1
    36    37    39    1
    37     6     1   ar
    38    21    15   ar
    39    30    22    1
    40    30    25    1
    41     9    10    1
    42    13    14    1
@<TRIPOS>MOLECULE
*****
 39 42 0 0 0
SMALL
GASTEIGER

@<TRIPOS>ATOM
      1 C         143.7597  139.7969  159.4296 C.ar    1  UNL1        0.0655
      2 C         144.0111  139.0977  160.7327 C.ar    1  UNL1        0.0337
      3 C         144.4629  139.8812  161.9294 C.ar    1  UNL1        0.0862
      4 C         144.6633  141.3639  161.8230 C.ar    1  UNL1        0.1534
      5 C         144.4119  142.0632  160.5198 C.ar    1  UNL1        0.0539
      6 C         143.9601  141.2796  159.3232 C.ar    1  UNL1        0.0647
      7 C         141.8498  138.7235  158.0332 C.2     1  UNL1        0.2497
      8 O         141.0237  139.0257  158.6828 O.2     1  UNL1       -0.2698
      9 N         143.3079  139.0133  158.2330 N.am    1  UNL1       -0.2794
     10 H         143.9684  138.6892  157.5788 H       1  UNL1        0.1552
     11 C         139.9731  137.4826  156.7339 C.2     1  UNL1        0.0048
     12 C         141.3979  137.9400  156.8366 C.2     1  UNL1        0.0580
     13 N         144.7143  139.1820  163.2324 N.pl3   1  UNL1       -0.2801
     14 H         145.5325  138.6484  163.3548 H       1  UNL1        0.1552
     15 C         143.7190  139.2957  164.3488 C.ar    1  UNL1        0.2208
     16 N         144.0777  138.8181  165.7248 N.ar    1  UNL1       -0.2111
     17 C         143.0824  138.9318  166.8413 C.ar    1  UNL1        0.1147
     18 C         141.7285  139.5232  166.5818 C.ar    1  UNL1        0.0945
     19 CL        140.7333  139.6369  167.6983 Cl      1  UNL1       -0.0790
     20 C         141.3699  140.0008  165.2058 C.ar    1  UNL1        0.0977
     21 N         142.3652  139.8871  164.0894 N.ar    1  UNL1       -0.2126
     22 C         140.0160  140.5922  164.9463 C.2     1  UNL1        0.0389
     23 C         138.7468  139.8246  164.7229 C.2     1  UNL1        0.1000
     24 N         137.6400  140.8130  164.5032 N.2     1  UNL1       -0.2478
     25 C         138.2253  142.1914  164.5908 C.2     1  UNL1        0.0634
     26 C         137.6108  143.5531  164.4566 C.3     1  UNL1        0.0717
     27 C         138.4647  144.7783  164.5963 C.2     1  UNL1       -0.0198
     28 C         139.9332  144.6418  164.8701 C.2     1  UNL1       -0.0041
     29 C         140.5477  143.2801  165.0043 C.2     1  UNL1        0.0010
     30 C         139.6937  142.0549  164.8647 C.2     1  UNL1        0.0169
     31 O         145.1151  142.1475  163.0196 O.3     1  UNL1       -0.4701
     32 C         144.2496  143.2420  163.5698 C.3     1  UNL1        0.2525
     33 N         143.7088  141.9788  158.0202 N.pl3   1  UNL1       -0.3033
     34 C         142.7434  142.3073  157.6251 C.3     1  UNL1        0.1123
     35 C         144.8548  142.2962  157.1060 C.3     1  UNL1        0.1082
     36 C         145.6527  141.1854  156.4900 C.3     1  UNL1        0.0938
     37 N         146.6339  141.4843  155.3956 N.3     1  UNL1       -0.2688
     38 C         146.2470  141.2702  153.9623 C.3     1  UNL1        0.0897
     39 C         148.0021  141.9974  155.7344 C.3     1  UNL1        0.0897
@<TRIPOS>BOND
     1    11    12    2
     2    12     7    1
     3     7     8    2
     4     7     9   am
     5     9     1    1
     6     1     2   ar
     7     2     3   ar
     8     3    13    1
     9    13    15    1
    10    15    16   ar
    11    16    17   ar
    12    17    18   ar
    13    18    19    1
    14    18    20   ar
    15    20    22    1
    16    22    23    2
    17    23    24    1
    18    24    25    2
    19    25    26    1
    20    26    27    1
    21    27    28    2
    22    28    29    1
    23    29    30    2
    24    20    21   ar
    25     3     4   ar
    26     4    31    1
    27    31    32    1
    28     4     5   ar
    29     5     6   ar
    30     6    33    1
    31    33    34    1
    32    33    35    1
    33    35    36    1
    34    36    37    1
    35    37    38    1
    36    37    39    1
    37     6     1   ar
    38    21    15   ar
    39    30    22    1
    40    30    25    1
    41     9    10    1
    42    13    14    1
