@<TRIPOS>MOLECULE
*****
 27 30 0 0 0
SMALL
GASTEIGER

@<TRIPOS>ATOM
      1 C         140.7624  142.0422  167.2857 C.3     1  UNL1        0.1686
      2 C         142.1146  141.3934  167.3140 C.3     1  UNL1        0.0595
      3 C         143.0528  141.6646  168.4525 C.3     1  UNL1        0.0614
      4 C         143.6301  142.2023  169.7283 C.3     1  UNL1        0.0175
      5 C         142.6104  143.1079  170.3529 C.3     1  UNL1        0.0175
      6 C         141.4030  143.1299  169.4631 C.3     1  UNL1        0.0614
      7 C         140.3485  142.9620  168.3959 C.3     1  UNL1        0.0595
      8 N         141.6764  142.2379  168.2886 N.3     1  UNL1       -0.2713
      9 O         139.8241  141.7711  166.1471 O.3     1  UNL1       -0.4790
     10 C         139.2700  138.3152  164.2764 C.ar    1  UNL1        0.1372
     11 C         139.7210  139.7176  164.5589 C.ar    1  UNL1        0.0606
     12 C         139.3731  140.3686  165.8647 C.ar    1  UNL1        0.1416
     13 C         138.5742  139.6173  166.8880 C.ar    1  UNL1        0.0576
     14 C         138.1232  138.2149  166.6055 C.ar    1  UNL1        0.1021
     15 N         138.4711  137.5638  165.2997 N.ar    1  UNL1       -0.2391
     16 N         138.6378  137.6891  161.8355 N.am    1  UNL1       -0.3241
     17 C         139.6180  137.6641  162.9706 C.2     1  UNL1        0.2606
     18 O         140.9460  136.9880  162.8001 O.2     1  UNL1       -0.2687
     19 H         138.8661  137.2617  160.9784 H       1  UNL1        0.1453
     20 H         137.7662  138.1328  161.9475 H       1  UNL1        0.1453
     21 C         140.7382  141.9667  167.1501 C.3     1  UNL1        0.0991
     22 C         140.5805  142.9759  166.0515 C.ar    1  UNL1       -0.0061
     23 C         139.3194  143.7815  165.9485 C.ar    1  UNL1       -0.0029
     24 C         139.1618  144.7905  164.8499 C.ar    1  UNL1       -0.0003
     25 C         140.2652  144.9940  163.8544 C.ar    1  UNL1       -0.0000
     26 C         141.5264  144.1884  163.9575 C.ar    1  UNL1       -0.0003
     27 C         141.6839  143.1793  165.0561 C.ar    1  UNL1       -0.0029
@<TRIPOS>BOND
     1    16    17   am
     2    17    18    2
     3    17    10    1
     4    10    11   ar
     5    11    12   ar
     6    12     9    1
     7     1     9    1
     8     1     2    1
     9     3     2    1
    10     3     4    1
    11     4     5    1
    12     6     5    1
    13     6     7    1
    14     6     8    1
    15     8    21    1
    16    21    22    1
    17    22    23   ar
    18    23    24   ar
    19    24    25   ar
    20    25    26   ar
    21    26    27   ar
    22    12    13   ar
    23    13    14   ar
    24    14    15   ar
    25    15    10   ar
    26     7     1    1
    27    27    22   ar
    28     8     3    1
    29    16    19    1
    30    16    20    1
@<TRIPOS>MOLECULE
*****
 27 30 0 0 0
SMALL
GASTEIGER

@<TRIPOS>ATOM
      1 C         141.5922  142.3122  165.8558 C.3     1  UNL1        0.1686
      2 C         140.5075  143.1910  165.3072 C.3     1  UNL1        0.0595
      3 C         140.8512  144.3096  164.3689 C.3     1  UNL1        0.0614
      4 C         141.6265  145.2595  163.5048 C.3     1  UNL1        0.0175
      5 C         143.0775  144.8905  163.5965 C.3     1  UNL1        0.0175
      6 C         143.1990  143.7126  164.5172 C.3     1  UNL1        0.0614
      7 C         143.0207  142.5519  165.4660 C.3     1  UNL1        0.0595
      8 N         141.8231  143.3536  164.9946 N.3     1  UNL1       -0.2713
      9 O         141.2485  141.1935  166.7942 O.3     1  UNL1       -0.4790
     10 C         139.5076  138.3487  164.6434 C.ar    1  UNL1        0.1372
     11 C         140.4763  139.4124  165.0675 C.ar    1  UNL1        0.0606
     12 C         140.2797  140.1297  166.3701 C.ar    1  UNL1        0.1416
     13 C         139.1143  139.7833  167.2486 C.ar    1  UNL1        0.0576
     14 C         138.1455  138.7195  166.8244 C.ar    1  UNL1        0.1021
     15 N         138.3422  138.0022  165.5218 N.ar    1  UNL1       -0.2391
     16 N         138.6085  137.6228  162.3164 N.am    1  UNL1       -0.3241
     17 C         139.7042  137.6313  163.3407 C.2     1  UNL1        0.2606
     18 O         140.9966  136.9226  163.0625 O.2     1  UNL1       -0.2687
     19 H         138.7375  137.1520  161.4615 H       1  UNL1        0.1453
     20 H         137.7603  138.0880  162.4991 H       1  UNL1        0.1453
     21 C         141.4793  142.2350  165.9330 C.3     1  UNL1        0.0991
     22 C         141.7196  142.3905  167.4054 C.ar    1  UNL1       -0.0061
     23 C         143.0153  141.9322  168.0064 C.ar    1  UNL1       -0.0029
     24 C         143.2556  142.0877  169.4788 C.ar    1  UNL1       -0.0003
     25 C         142.2002  142.7017  170.3502 C.ar    1  UNL1       -0.0000
     26 C         140.9045  143.1600  169.7492 C.ar    1  UNL1       -0.0003
     27 C         140.6643  143.0044  168.2767 C.ar    1  UNL1       -0.0029
@<TRIPOS>BOND
     1    16    17   am
     2    17    18    2
     3    17    10    1
     4    10    11   ar
     5    11    12   ar
     6    12     9    1
     7     1     9    1
     8     1     2    1
     9     3     2    1
    10     3     4    1
    11     4     5    1
    12     6     5    1
    13     6     7    1
    14     6     8    1
    15     8    21    1
    16    21    22    1
    17    22    23   ar
    18    23    24   ar
    19    24    25   ar
    20    25    26   ar
    21    26    27   ar
    22    12    13   ar
    23    13    14   ar
    24    14    15   ar
    25    15    10   ar
    26     7     1    1
    27    27    22   ar
    28     8     3    1
    29    16    19    1
    30    16    20    1
@<TRIPOS>MOLECULE
*****
 27 30 0 0 0
SMALL
GASTEIGER

@<TRIPOS>ATOM
      1 C         139.6554  141.3482  165.1280 C.3     1  UNL1        0.1686
      2 C         140.5100  142.4272  164.5319 C.3     1  UNL1        0.0595
      3 C         139.9701  143.2875  163.4281 C.3     1  UNL1        0.0614
      4 C         139.0555  143.8742  162.3941 C.3     1  UNL1        0.0175
      5 C         137.7570  143.1250  162.4451 C.3     1  UNL1        0.0175
      6 C         137.8691  142.0752  163.5107 C.3     1  UNL1        0.0614
      7 C         138.2609  141.1295  164.6203 C.3     1  UNL1        0.0595
      8 N         139.2369  142.1757  164.1182 N.3     1  UNL1       -0.2713
      9 O         140.1952  140.4878  166.2319 O.3     1  UNL1       -0.4790
     10 C         140.3351  142.5238  169.6356 C.ar    1  UNL1        0.1372
     11 C         140.5639  142.1384  168.2042 C.ar    1  UNL1        0.0606
     12 C         139.9663  140.8733  167.6634 C.ar    1  UNL1        0.1416
     13 C         139.1400  139.9936  168.5540 C.ar    1  UNL1        0.0576
     14 C         138.9112  140.3791  169.9855 C.ar    1  UNL1        0.1021
     15 N         139.5087  141.6442  170.5263 N.ar    1  UNL1       -0.2391
     16 N         142.3830  143.8307  170.5565 N.am    1  UNL1       -0.3241
     17 C         140.9326  143.7890  170.1765 C.2     1  UNL1        0.2606
     18 O         140.0797  145.0123  170.3372 O.2     1  UNL1       -0.2687
     19 H         142.7752  144.6610  170.9114 H       1  UNL1        0.1453
     20 H         142.9428  143.0277  170.4509 H       1  UNL1        0.1453
     21 C         139.7768  141.3154  165.2221 C.3     1  UNL1        0.0991
     22 C         140.2052  139.9070  164.9341 C.ar    1  UNL1       -0.0061
     23 C         139.2039  138.7916  164.9929 C.ar    1  UNL1       -0.0029
     24 C         139.6322  137.3833  164.7049 C.ar    1  UNL1       -0.0003
     25 C         141.0618  137.0902  164.3582 C.ar    1  UNL1       -0.0000
     26 C         142.0632  138.2056  164.2994 C.ar    1  UNL1       -0.0003
     27 C         141.6347  139.6140  164.5874 C.ar    1  UNL1       -0.0029
@<TRIPOS>BOND
     1    16    17   am
     2    17    18    2
     3    17    10    1
     4    10    11   ar
     5    11    12   ar
     6    12     9    1
     7     1     9    1
     8     1     2    1
     9     3     2    1
    10     3     4    1
    11     4     5    1
    12     6     5    1
    13     6     7    1
    14     6     8    1
    15     8    21    1
    16    21    22    1
    17    22    23   ar
    18    23    24   ar
    19    24    25   ar
    20    25    26   ar
    21    26    27   ar
    22    12    13   ar
    23    13    14   ar
    24    14    15   ar
    25    15    10   ar
    26     7     1    1
    27    27    22   ar
    28     8     3    1
    29    16    19    1
    30    16    20    1
@<TRIPOS>MOLECULE
*****
 27 30 0 0 0
SMALL
GASTEIGER

@<TRIPOS>ATOM
      1 C         139.2682  141.2458  165.3755 C.3     1  UNL1        0.1686
      2 C         140.1241  142.4385  165.6836 C.3     1  UNL1        0.0595
      3 C         139.7394  143.7919  165.1638 C.3     1  UNL1        0.0614
      4 C         138.9997  144.8950  164.4668 C.3     1  UNL1        0.0175
      5 C         137.7894  144.2992  163.8109 C.3     1  UNL1        0.0175
      6 C         137.7811  142.8279  164.1026 C.3     1  UNL1        0.0614
      7 C         138.0278  141.4065  164.5476 C.3     1  UNL1        0.0595
      8 N         138.9864  142.5143  164.9387 N.3     1  UNL1       -0.2713
      9 O         139.6529  139.8922  165.8953 O.3     1  UNL1       -0.4790
     10 C         140.8775  139.8651  169.6701 C.ar    1  UNL1        0.1372
     11 C         139.9846  139.9819  168.4705 C.ar    1  UNL1        0.0606
     12 C         140.5458  139.7755  167.0949 C.ar    1  UNL1        0.1416
     13 C         141.9999  139.4523  166.9188 C.ar    1  UNL1        0.0576
     14 C         142.8928  139.3356  168.1184 C.ar    1  UNL1        0.1021
     15 N         142.3316  139.5420  169.4940 N.ar    1  UNL1       -0.2391
     16 N         139.4325  139.0266  171.6598 N.am    1  UNL1       -0.3241
     17 C         140.3163  140.0715  171.0459 C.2     1  UNL1        0.2606
     18 O         140.6390  141.3228  171.8075 O.2     1  UNL1       -0.2687
     19 H         139.0642  139.1621  172.5627 H       1  UNL1        0.1453
     20 H         139.2207  138.2054  171.1599 H       1  UNL1        0.1453
     21 C         139.3710  141.1609  165.4585 C.3     1  UNL1        0.0991
     22 C         139.5962  140.0267  164.5030 C.ar    1  UNL1       -0.0061
     23 C         140.7157  140.0959  163.5072 C.ar    1  UNL1       -0.0029
     24 C         140.9409  138.9618  162.5518 C.ar    1  UNL1       -0.0003
     25 C         140.0465  137.7583  162.5921 C.ar    1  UNL1       -0.0000
     26 C         138.9268  137.6890  163.5880 C.ar    1  UNL1       -0.0003
     27 C         138.7018  138.8233  164.5435 C.ar    1  UNL1       -0.0029
@<TRIPOS>BOND
     1    16    17   am
     2    17    18    2
     3    17    10    1
     4    10    11   ar
     5    11    12   ar
     6    12     9    1
     7     1     9    1
     8     1     2    1
     9     3     2    1
    10     3     4    1
    11     4     5    1
    12     6     5    1
    13     6     7    1
    14     6     8    1
    15     8    21    1
    16    21    22    1
    17    22    23   ar
    18    23    24   ar
    19    24    25   ar
    20    25    26   ar
    21    26    27   ar
    22    12    13   ar
    23    13    14   ar
    24    14    15   ar
    25    15    10   ar
    26     7     1    1
    27    27    22   ar
    28     8     3    1
    29    16    19    1
    30    16    20    1
@<TRIPOS>MOLECULE
*****
 27 30 0 0 0
SMALL
GASTEIGER

@<TRIPOS>ATOM
      1 C         140.2160  141.2593  166.5826 C.3     1  UNL1        0.1686
      2 C         140.5890  142.5005  167.3376 C.3     1  UNL1        0.0595
      3 C         140.3750  142.5691  168.8206 C.3     1  UNL1        0.0614
      4 C         140.0001  142.2037  170.2263 C.3     1  UNL1        0.0175
      5 C         139.4457  140.8100  170.2107 C.3     1  UNL1        0.0175
      6 C         139.4780  140.3140  168.7954 C.3     1  UNL1        0.0614
      7 C         139.6288  140.0866  167.3106 C.3     1  UNL1        0.0595
      8 N         140.0523  141.4013  167.9363 N.3     1  UNL1       -0.2713
      9 O         140.4300  141.1906  165.0994 O.3     1  UNL1       -0.4790
     10 C         139.3239  144.2463  162.8216 C.ar    1  UNL1        0.1372
     11 C         140.1407  143.3844  163.7378 C.ar    1  UNL1        0.0606
     12 C         139.6131  142.0527  164.1831 C.ar    1  UNL1        0.1416
     13 C         138.2688  141.5830  163.7121 C.ar    1  UNL1        0.0576
     14 C         137.4519  142.4450  162.7958 C.ar    1  UNL1        0.1021
     15 N         137.9794  143.7767  162.3505 N.ar    1  UNL1       -0.2391
     16 N         141.1183  146.1193  162.9694 N.am    1  UNL1       -0.3241
     17 C         139.8514  145.5781  162.3762 C.2     1  UNL1        0.2606
     18 O         139.1119  146.3685  161.3378 O.2     1  UNL1       -0.2687
     19 H         141.4646  146.9934  162.6771 H       1  UNL1        0.1453
     20 H         141.6036  145.6005  163.6509 H       1  UNL1        0.1453
     21 C         140.2664  141.3327  166.4532 C.3     1  UNL1        0.0991
     22 C         141.3620  140.4753  165.8924 C.ar    1  UNL1       -0.0061
     23 C         141.0769  139.0562  165.4991 C.ar    1  UNL1       -0.0029
     24 C         142.1725  138.1988  164.9383 C.ar    1  UNL1       -0.0003
     25 C         143.5532  138.7606  164.7708 C.ar    1  UNL1       -0.0000
     26 C         143.8383  140.1798  165.1642 C.ar    1  UNL1       -0.0003
     27 C         142.7426  141.0371  165.7250 C.ar    1  UNL1       -0.0029
@<TRIPOS>BOND
     1    16    17   am
     2    17    18    2
     3    17    10    1
     4    10    11   ar
     5    11    12   ar
     6    12     9    1
     7     1     9    1
     8     1     2    1
     9     3     2    1
    10     3     4    1
    11     4     5    1
    12     6     5    1
    13     6     7    1
    14     6     8    1
    15     8    21    1
    16    21    22    1
    17    22    23   ar
    18    23    24   ar
    19    24    25   ar
    20    25    26   ar
    21    26    27   ar
    22    12    13   ar
    23    13    14   ar
    24    14    15   ar
    25    15    10   ar
    26     7     1    1
    27    27    22   ar
    28     8     3    1
    29    16    19    1
    30    16    20    1
@<TRIPOS>MOLECULE
*****
 27 30 0 0 0
SMALL
GASTEIGER

@<TRIPOS>ATOM
      1 C         140.4615  141.6582  166.6110 C.3     1  UNL1        0.1686
      2 C         139.8604  140.3499  167.0316 C.3     1  UNL1        0.0595
      3 C         139.4712  140.1291  168.4633 C.3     1  UNL1        0.0614
      4 C         139.2461  140.3465  169.9302 C.3     1  UNL1        0.0175
      5 C         139.7154  141.7298  170.2711 C.3     1  UNL1        0.0175
      6 C         140.2306  142.3673  169.0149 C.3     1  UNL1        0.0614
      7 C         140.6733  142.7458  167.6221 C.3     1  UNL1        0.0595
      8 N         140.0797  141.3780  167.8975 N.3     1  UNL1       -0.2713
      9 O         140.8507  141.8791  165.1792 O.3     1  UNL1       -0.4790
     10 C         143.1768  139.3321  163.2165 C.ar    1  UNL1        0.1372
     11 C         141.9493  139.9927  163.7704 C.ar    1  UNL1        0.0606
     12 C         142.0783  141.2185  164.6253 C.ar    1  UNL1        0.1416
     13 C         143.4346  141.7837  164.9262 C.ar    1  UNL1        0.0576
     14 C         144.6622  141.1231  164.3723 C.ar    1  UNL1        0.1021
     15 N         144.5332  139.8973  163.5175 N.ar    1  UNL1       -0.2391
     16 N         141.8086  137.2649  162.4389 N.am    1  UNL1       -0.3241
     17 C         143.0479  138.1062  162.3616 C.2     1  UNL1        0.2606
     18 O         144.1584  137.7219  161.4294 O.2     1  UNL1       -0.2687
     19 H         141.7240  136.4604  161.8778 H       1  UNL1        0.1453
     20 H         141.0797  137.5172  163.0508 H       1  UNL1        0.1453
     21 C         140.4689  141.5988  166.4658 C.3     1  UNL1        0.0991
     22 C         139.5956  142.4266  165.5702 C.ar    1  UNL1       -0.0061
     23 C         139.8383  143.9011  165.4403 C.ar    1  UNL1       -0.0029
     24 C         138.9651  144.7288  164.5447 C.ar    1  UNL1       -0.0003
     25 C         137.8490  144.0822  163.7791 C.ar    1  UNL1       -0.0000
     26 C         137.6062  142.6076  163.9091 C.ar    1  UNL1       -0.0003
     27 C         138.4795  141.7799  164.8047 C.ar    1  UNL1       -0.0029
@<TRIPOS>BOND
     1    16    17   am
     2    17    18    2
     3    17    10    1
     4    10    11   ar
     5    11    12   ar
     6    12     9    1
     7     1     9    1
     8     1     2    1
     9     3     2    1
    10     3     4    1
    11     4     5    1
    12     6     5    1
    13     6     7    1
    14     6     8    1
    15     8    21    1
    16    21    22    1
    17    22    23   ar
    18    23    24   ar
    19    24    25   ar
    20    25    26   ar
    21    26    27   ar
    22    12    13   ar
    23    13    14   ar
    24    14    15   ar
    25    15    10   ar
    26     7     1    1
    27    27    22   ar
    28     8     3    1
    29    16    19    1
    30    16    20    1
@<TRIPOS>MOLECULE
*****
 27 30 0 0 0
SMALL
GASTEIGER

@<TRIPOS>ATOM
      1 C         142.0671  141.9526  164.9579 C.3     1  UNL1        0.1686
      2 C         142.4540  140.5815  164.4884 C.3     1  UNL1        0.0595
      3 C         143.8472  140.3226  163.9965 C.3     1  UNL1        0.0614
      4 C         145.2827  140.5194  163.6085 C.3     1  UNL1        0.0175
      5 C         145.6403  141.9531  163.8666 C.3     1  UNL1        0.0175
      6 C         144.4258  142.6424  164.4141 C.3     1  UNL1        0.0614
      7 C         143.0734  143.0648  164.9354 C.3     1  UNL1        0.0595
      8 N         143.3176  141.6347  164.4945 N.3     1  UNL1       -0.2713
      9 O         140.6739  142.2116  165.4498 O.3     1  UNL1       -0.4790
     10 C         140.0018  142.1035  169.3595 C.ar    1  UNL1        0.1372
     11 C         140.4232  142.5962  168.0070 C.ar    1  UNL1        0.0606
     12 C         140.2524  141.7189  166.8024 C.ar    1  UNL1        0.1416
     13 C         139.6600  140.3488  166.9504 C.ar    1  UNL1        0.0576
     14 C         139.2385  139.8561  168.3030 C.ar    1  UNL1        0.1021
     15 N         139.4094  140.7334  169.5076 N.ar    1  UNL1       -0.2391
     16 N         140.1311  144.4730  170.4173 N.am    1  UNL1       -0.3241
     17 C         140.1726  142.9808  170.5642 C.2     1  UNL1        0.2606
     18 O         140.3850  142.3659  171.9158 O.2     1  UNL1       -0.2687
     19 H         140.2432  145.0488  171.2079 H       1  UNL1        0.1453
     20 H         139.9917  144.8765  169.5302 H       1  UNL1        0.1453
     21 C         141.9244  141.8936  164.9864 C.3     1  UNL1        0.0991
     22 C         140.9718  142.6978  164.1522 C.ar    1  UNL1       -0.0061
     23 C         140.2136  142.0415  163.0367 C.ar    1  UNL1       -0.0029
     24 C         139.2610  142.8457  162.2025 C.ar    1  UNL1       -0.0003
     25 C         139.0667  144.3062  162.4838 C.ar    1  UNL1       -0.0000
     26 C         139.8249  144.9626  163.5994 C.ar    1  UNL1       -0.0003
     27 C         140.7775  144.1583  164.4335 C.ar    1  UNL1       -0.0029
@<TRIPOS>BOND
     1    16    17   am
     2    17    18    2
     3    17    10    1
     4    10    11   ar
     5    11    12   ar
     6    12     9    1
     7     1     9    1
     8     1     2    1
     9     3     2    1
    10     3     4    1
    11     4     5    1
    12     6     5    1
    13     6     7    1
    14     6     8    1
    15     8    21    1
    16    21    22    1
    17    22    23   ar
    18    23    24   ar
    19    24    25   ar
    20    25    26   ar
    21    26    27   ar
    22    12    13   ar
    23    13    14   ar
    24    14    15   ar
    25    15    10   ar
    26     7     1    1
    27    27    22   ar
    28     8     3    1
    29    16    19    1
    30    16    20    1
@<TRIPOS>MOLECULE
*****
 27 30 0 0 0
SMALL
GASTEIGER

@<TRIPOS>ATOM
      1 C         141.7760  139.7959  165.4348 C.3     1  UNL1        0.1686
      2 C         141.7098  138.3204  165.1732 C.3     1  UNL1        0.0595
      3 C         140.6171  137.7598  164.3119 C.3     1  UNL1        0.0614
      4 C         139.4066  137.6530  163.4325 C.3     1  UNL1        0.0175
      5 C         138.8523  139.0331  163.2374 C.3     1  UNL1        0.0175
      6 C         139.7202  139.9928  163.9962 C.3     1  UNL1        0.0614
      7 C         140.7496  140.7108  164.8352 C.3     1  UNL1        0.0595
      8 N         140.8109  139.2059  164.6603 N.3     1  UNL1       -0.2713
      9 O         142.8687  140.3566  166.2961 O.3     1  UNL1       -0.4790
     10 C         142.3355  142.0414  169.8495 C.ar    1  UNL1        0.1372
     11 C         142.5502  141.8842  168.3734 C.ar    1  UNL1        0.0606
     12 C         142.6541  140.5138  167.7723 C.ar    1  UNL1        0.1416
     13 C         142.5433  139.3006  168.6474 C.ar    1  UNL1        0.0576
     14 C         142.3286  139.4578  170.1237 C.ar    1  UNL1        0.1021
     15 N         142.2247  140.8282  170.7247 N.ar    1  UNL1       -0.2391
     16 N         143.3784  143.9749  171.2366 N.am    1  UNL1       -0.3241
     17 C         142.2316  143.4118  170.4507 C.2     1  UNL1        0.2606
     18 O         140.9809  144.2190  170.2658 O.2     1  UNL1       -0.2687
     19 H         143.3102  144.8743  171.6311 H       1  UNL1        0.1453
     20 H         144.1993  143.4451  171.3579 H       1  UNL1        0.1453
     21 C         141.9036  139.7665  165.5216 C.3     1  UNL1        0.0991
     22 C         143.0391  140.5211  164.8961 C.ar    1  UNL1       -0.0061
     23 C         144.3000  139.8017  164.5185 C.ar    1  UNL1       -0.0029
     24 C         145.4354  140.5562  163.8931 C.ar    1  UNL1       -0.0003
     25 C         145.3100  142.0303  163.6451 C.ar    1  UNL1       -0.0000
     26 C         144.0490  142.7498  164.0226 C.ar    1  UNL1       -0.0003
     27 C         142.9136  141.9951  164.6481 C.ar    1  UNL1       -0.0029
@<TRIPOS>BOND
     1    16    17   am
     2    17    18    2
     3    17    10    1
     4    10    11   ar
     5    11    12   ar
     6    12     9    1
     7     1     9    1
     8     1     2    1
     9     3     2    1
    10     3     4    1
    11     4     5    1
    12     6     5    1
    13     6     7    1
    14     6     8    1
    15     8    21    1
    16    21    22    1
    17    22    23   ar
    18    23    24   ar
    19    24    25   ar
    20    25    26   ar
    21    26    27   ar
    22    12    13   ar
    23    13    14   ar
    24    14    15   ar
    25    15    10   ar
    26     7     1    1
    27    27    22   ar
    28     8     3    1
    29    16    19    1
    30    16    20    1
@<TRIPOS>MOLECULE
*****
 27 30 0 0 0
SMALL
GASTEIGER

@<TRIPOS>ATOM
      1 C         140.4987  140.3519  165.7448 C.3     1  UNL1        0.1686
      2 C         139.8240  139.0122  165.7418 C.3     1  UNL1        0.0595
      3 C         140.3004  137.9347  164.8134 C.3     1  UNL1        0.0614
      4 C         141.0792  137.1956  163.7658 C.3     1  UNL1        0.0175
      5 C         142.1332  138.1205  163.2333 C.3     1  UNL1        0.0175
      6 C         142.0059  139.4311  163.9517 C.3     1  UNL1        0.0614
      7 C         141.6497  140.6141  164.8193 C.3     1  UNL1        0.0595
      8 N         140.8731  139.3163  164.9282 N.3     1  UNL1       -0.2713
      9 O         140.0223  141.4295  166.6732 O.3     1  UNL1       -0.4790
     10 C         142.1710  142.2413  169.9095 C.ar    1  UNL1        0.1372
     11 C         141.7097  142.2230  168.4824 C.ar    1  UNL1        0.0606
     12 C         140.4836  141.4479  168.1004 C.ar    1  UNL1        0.1416
     13 C         139.7189  140.6910  169.1455 C.ar    1  UNL1        0.0576
     14 C         140.1803  140.7094  170.5727 C.ar    1  UNL1        0.1021
     15 N         141.4063  141.4845  170.9547 N.ar    1  UNL1       -0.2391
     16 N         143.3181  144.0662  171.3600 N.am    1  UNL1       -0.3241
     17 C         143.3971  143.0165  170.2915 C.2     1  UNL1        0.2606
     18 O         144.7022  142.7419  169.6050 O.2     1  UNL1       -0.2687
     19 H         144.1227  144.5750  171.6108 H       1  UNL1        0.1453
     20 H         142.4615  144.2464  171.8106 H       1  UNL1        0.1453
     21 C         140.3967  140.3938  165.8566 C.3     1  UNL1        0.0991
     22 C         139.6955  141.6008  165.3077 C.ar    1  UNL1       -0.0061
     23 C         138.2624  141.5037  164.8755 C.ar    1  UNL1       -0.0029
     24 C         137.5611  142.7107  164.3266 C.ar    1  UNL1       -0.0003
     25 C         138.2929  144.0148  164.2098 C.ar    1  UNL1       -0.0000
     26 C         139.7261  144.1120  164.6420 C.ar    1  UNL1       -0.0003
     27 C         140.4273  142.9049  165.1910 C.ar    1  UNL1       -0.0029
@<TRIPOS>BOND
     1    16    17   am
     2    17    18    2
     3    17    10    1
     4    10    11   ar
     5    11    12   ar
     6    12     9    1
     7     1     9    1
     8     1     2    1
     9     3     2    1
    10     3     4    1
    11     4     5    1
    12     6     5    1
    13     6     7    1
    14     6     8    1
    15     8    21    1
    16    21    22    1
    17    22    23   ar
    18    23    24   ar
    19    24    25   ar
    20    25    26   ar
    21    26    27   ar
    22    12    13   ar
    23    13    14   ar
    24    14    15   ar
    25    15    10   ar
    26     7     1    1
    27    27    22   ar
    28     8     3    1
    29    16    19    1
    30    16    20    1
