@<TRIPOS>MOLECULE
*****
 45 49 0 0 0
SMALL
GASTEIGER

@<TRIPOS>ATOM
      1 C         139.1466  139.3072  166.2875 C.ar    1  UNL1        0.2006
      2 N         139.8366  140.5746  165.8785 N.ar    1  UNL1       -0.1999
      3 C         140.2075  141.5946  166.9141 C.ar    1  UNL1        0.1391
      4 C         139.8882  141.3470  168.3586 C.ar    1  UNL1        0.0827
      5 C         140.1297  142.1627  169.5940 C.ar    1  UNL1        0.0866
      6 C         140.7952  143.5059  169.6475 C.3     1  UNL1        0.0542
      7 N         139.5889  141.3994  170.7665 N.ar    1  UNL1       -0.1508
      8 N         139.0131  140.1118  170.2558 N.ar    1  UNL1       -0.1305
      9 C         139.1981  140.0795  168.7676 C.ar    1  UNL1        0.1679
     10 N         138.8273  139.0596  167.7320 N.ar    1  UNL1       -0.3104
     11 H         138.3744  138.2277  168.0005 H       1  UNL1        0.1701
     12 N         138.7758  138.2872  165.2519 N.pl3   1  UNL1       -0.2816
     13 H         138.2994  137.4674  165.5169 H       1  UNL1        0.1551
     14 C         137.4428  139.8675  160.4847 C.3     1  UNL1        0.0307
     15 C         138.4644  139.3066  161.4291 C.ar    1  UNL1       -0.0244
     16 C         138.1093  139.0774  162.8683 C.ar    1  UNL1        0.0132
     17 C         139.1308  138.5165  163.8127 C.ar    1  UNL1        0.0845
     18 C         140.5075  138.1848  163.3179 C.ar    1  UNL1        0.1513
     19 C         140.8626  138.4140  161.8786 C.ar    1  UNL1        0.0336
     20 C         139.8411  138.9749  160.9342 C.ar    1  UNL1       -0.0233
     21 C         140.1961  139.2041  159.4950 C.3     1  UNL1        0.0249
     22 C         139.9047  138.1457  158.4729 C.3     1  UNL1        0.0217
     23 C         140.2598  138.3749  157.0336 C.3     1  UNL1        0.0725
     24 N         140.9062  139.6626  156.6166 N.3     1  UNL1       -0.2715
     25 C         141.2613  139.8919  155.1773 C.3     1  UNL1        0.0896
     26 C         141.1976  140.7211  157.6387 C.3     1  UNL1        0.0725
     27 C         140.8425  140.4918  159.0779 C.3     1  UNL1        0.0217
     28 O         141.5290  137.6239  164.2622 O.3     1  UNL1       -0.4779
     29 C         142.6640  138.4827  164.7359 C.3     1  UNL1        0.1662
     30 C         142.8269  138.7704  166.1990 C.3     1  UNL1        0.0472
     31 C         143.6359  139.0539  163.7465 C.3     1  UNL1        0.0472
     32 N         140.8975  142.8621  166.5050 N.pl3   1  UNL1       -0.2967
     33 H         140.6186  143.7222  166.8944 H       1  UNL1        0.1536
     34 C         142.0126  142.8191  165.5026 C.ar    1  UNL1        0.0667
     35 C         143.4203  142.5701  165.9568 C.ar    1  UNL1        0.0159
     36 C         144.5352  142.5271  164.9543 C.ar    1  UNL1        0.0014
     37 C         144.2425  142.7331  163.4976 C.ar    1  UNL1        0.0014
     38 C         142.8348  142.9821  163.0434 C.ar    1  UNL1        0.0196
     39 C         141.7198  143.0251  164.0459 C.ar    1  UNL1        0.1189
     40 S         140.3121  143.2740  163.5917 S.O2    1  UNL1        0.0082
     41 O         140.3000  144.5732  164.3413 O.2     1  UNL1       -0.1686
     42 O         140.3241  141.9748  162.8421 O.2     1  UNL1       -0.1686
     43 C         138.9043  143.5230  163.1375 C.3     1  UNL1        0.1340
     44 C         137.9157  144.1558  164.0714 C.3     1  UNL1        0.0257
     45 C         138.4853  143.1392  161.7493 C.3     1  UNL1        0.0257
@<TRIPOS>BOND
     1    14    15    1
     2    15    16   ar
     3    16    17   ar
     4    17    12    1
     5    12     1    1
     6     1     2   ar
     7     2     3   ar
     8     3    32    1
     9    32    34    1
    10    34    35   ar
    11    35    36   ar
    12    36    37   ar
    13    37    38   ar
    14    38    39   ar
    15    39    40    1
    16    40    41    2
    17    40    42    2
    18    40    43    1
    19    43    44    1
    20    43    45    1
    21     3     4   ar
    22     4     5   ar
    23     5     6    1
    24     5     7   ar
    25     7     8   ar
    26     8     9   ar
    27     9    10   ar
    28    17    18   ar
    29    18    28    1
    30    28    29    1
    31    29    30    1
    32    29    31    1
    33    18    19   ar
    34    19    20   ar
    35    20    21    1
    36    21    22    1
    37    22    23    1
    38    23    24    1
    39    24    25    1
    40    24    26    1
    41    26    27    1
    42    20    15   ar
    43    27    21    1
    44    10     1   ar
    45    39    34   ar
    46     9     4    1
    47    12    13    1
    48    32    33    1
    49    10    11    1
@<TRIPOS>MOLECULE
*****
 45 49 0 0 0
SMALL
GASTEIGER

@<TRIPOS>ATOM
      1 C         142.4370  138.3663  161.1419 C.ar    1  UNL1        0.2006
      2 N         142.9043  139.7844  161.2843 N.ar    1  UNL1       -0.1999
      3 C         143.4736  140.5090  160.1007 C.ar    1  UNL1        0.1391
      4 C         143.5755  139.8153  158.7746 C.ar    1  UNL1        0.0827
      5 C         144.0885  140.2705  157.4406 C.ar    1  UNL1        0.0866
      6 C         144.6527  141.6248  157.1283 C.3     1  UNL1        0.0542
      7 N         143.9382  139.1336  156.4737 N.ar    1  UNL1       -0.1508
      8 N         143.3323  137.9758  157.2102 N.ar    1  UNL1       -0.1305
      9 C         143.1082  138.3971  158.6322 C.ar    1  UNL1        0.1679
     10 N         142.5389  137.6726  159.8159 N.ar    1  UNL1       -0.3104
     11 H         142.2321  136.7418  159.7224 H       1  UNL1        0.1701
     12 N         141.8677  137.6417  162.3255 N.pl3   1  UNL1       -0.2816
     13 H         141.7147  136.6702  162.2811 H       1  UNL1        0.1551
     14 C         143.0622  139.0744  167.1754 C.3     1  UNL1        0.0307
     15 C         142.1288  139.1138  166.0019 C.ar    1  UNL1       -0.0244
     16 C         142.4649  138.3581  164.7505 C.ar    1  UNL1        0.0132
     17 C         141.5316  138.3974  163.5769 C.ar    1  UNL1        0.0845
     18 C         140.2620  139.1925  163.6547 C.ar    1  UNL1        0.1513
     19 C         139.9259  139.9483  164.9061 C.ar    1  UNL1        0.0336
     20 C         140.8592  139.9089  166.0796 C.ar    1  UNL1       -0.0233
     21 C         140.5231  140.6646  167.3309 C.3     1  UNL1        0.0249
     22 C         140.9426  142.0973  167.4774 C.3     1  UNL1        0.0217
     23 C         140.6065  142.8530  168.7288 C.3     1  UNL1        0.0725
     24 N         139.8509  142.1761  169.8336 N.3     1  UNL1       -0.2715
     25 C         139.5147  142.9317  171.0851 C.3     1  UNL1        0.0896
     26 C         139.4314  140.7434  169.6872 C.3     1  UNL1        0.0725
     27 C         139.7675  139.9877  168.4358 C.3     1  UNL1        0.0217
     28 O         139.3286  139.2319  162.4812 O.3     1  UNL1       -0.4779
     29 C         138.8340  140.5487  161.9601 C.3     1  UNL1        0.1662
     30 C         139.6677  141.3323  160.9900 C.3     1  UNL1        0.0472
     31 C         137.5058  141.0818  162.4090 C.3     1  UNL1        0.0472
     32 N         143.9410  141.9272  160.2431 N.pl3   1  UNL1       -0.2967
     33 H         144.9011  142.1372  160.1859 H       1  UNL1        0.1536
     34 C         142.9454  143.0254  160.4729 C.ar    1  UNL1        0.0667
     35 C         142.2147  143.6306  159.3111 C.ar    1  UNL1        0.0159
     36 C         141.2192  144.7288  159.5409 C.ar    1  UNL1        0.0014
     37 C         140.9544  145.2219  160.9326 C.ar    1  UNL1        0.0014
     38 C         141.6851  144.6167  162.0944 C.ar    1  UNL1        0.0196
     39 C         142.6806  143.5185  161.8646 C.ar    1  UNL1        0.1189
     40 S         143.4113  142.9134  163.0264 S.O2    1  UNL1        0.0082
     41 O         142.1389  142.2692  163.4911 O.2     1  UNL1       -0.1686
     42 O         144.6837  143.5575  162.5617 O.2     1  UNL1       -0.1686
     43 C         144.1420  142.3082  164.1882 C.3     1  UNL1        0.1340
     44 C         145.0534  141.1365  163.9731 C.3     1  UNL1        0.0257
     45 C         143.9613  142.8750  165.5653 C.3     1  UNL1        0.0257
@<TRIPOS>BOND
     1    14    15    1
     2    15    16   ar
     3    16    17   ar
     4    17    12    1
     5    12     1    1
     6     1     2   ar
     7     2     3   ar
     8     3    32    1
     9    32    34    1
    10    34    35   ar
    11    35    36   ar
    12    36    37   ar
    13    37    38   ar
    14    38    39   ar
    15    39    40    1
    16    40    41    2
    17    40    42    2
    18    40    43    1
    19    43    44    1
    20    43    45    1
    21     3     4   ar
    22     4     5   ar
    23     5     6    1
    24     5     7   ar
    25     7     8   ar
    26     8     9   ar
    27     9    10   ar
    28    17    18   ar
    29    18    28    1
    30    28    29    1
    31    29    30    1
    32    29    31    1
    33    18    19   ar
    34    19    20   ar
    35    20    21    1
    36    21    22    1
    37    22    23    1
    38    23    24    1
    39    24    25    1
    40    24    26    1
    41    26    27    1
    42    20    15   ar
    43    27    21    1
    44    10     1   ar
    45    39    34   ar
    46     9     4    1
    47    12    13    1
    48    32    33    1
    49    10    11    1
@<TRIPOS>MOLECULE
*****
 45 49 0 0 0
SMALL
GASTEIGER

@<TRIPOS>ATOM
      1 C         143.3725  143.0458  165.4638 C.ar    1  UNL1        0.2006
      2 N         142.2144  142.1221  165.2286 N.ar    1  UNL1       -0.1999
      3 C         141.6329  141.3424  166.3705 C.ar    1  UNL1        0.1391
      4 C         142.2096  141.4866  167.7477 C.ar    1  UNL1        0.0827
      5 C         141.8490  140.8521  169.0582 C.ar    1  UNL1        0.0866
      6 C         140.7467  139.8602  169.2840 C.3     1  UNL1        0.0542
      7 N         142.7844  141.3839  170.1034 N.ar    1  UNL1       -0.1508
      8 N         143.7230  142.3469  169.4389 N.ar    1  UNL1       -0.1305
      9 C         143.3677  142.4104  167.9829 C.ar    1  UNL1        0.1679
     10 N         143.9492  143.1900  166.8410 N.ar    1  UNL1       -0.3104
     11 H         144.7093  143.7963  166.9953 H       1  UNL1        0.1701
     12 N         143.9540  143.8255  164.3218 N.pl3   1  UNL1       -0.2816
     13 H         144.8370  144.2508  164.4152 H       1  UNL1        0.1551
     14 C         140.0790  145.9497  161.5882 C.3     1  UNL1        0.0307
     15 C         141.2526  145.0192  161.6708 C.ar    1  UNL1       -0.0244
     16 C         142.0165  144.8876  162.9550 C.ar    1  UNL1        0.0132
     17 C         143.1902  143.9571  163.0376 C.ar    1  UNL1        0.0845
     18 C         143.5999  143.1582  161.8360 C.ar    1  UNL1        0.1513
     19 C         142.8360  143.2899  160.5517 C.ar    1  UNL1        0.0336
     20 C         141.6625  144.2203  160.4691 C.ar    1  UNL1       -0.0233
     21 C         140.8986  144.3519  159.1849 C.3     1  UNL1        0.0249
     22 C         141.1803  145.4977  158.2588 C.3     1  UNL1        0.0217
     23 C         140.4164  145.6293  156.9746 C.3     1  UNL1        0.0725
     24 N         139.3709  144.6151  156.6165 N.3     1  UNL1       -0.2715
     25 C         138.6069  144.7466  155.3323 C.3     1  UNL1        0.0896
     26 C         139.0892  143.4693  157.5427 C.3     1  UNL1        0.0725
     27 C         139.8531  143.3377  158.8269 C.3     1  UNL1        0.0217
     28 O         144.7736  142.2278  161.9186 O.3     1  UNL1       -0.4779
     29 C         144.5978  140.8464  162.4762 C.3     1  UNL1        0.1662
     30 C         145.2639  140.4678  163.7658 C.3     1  UNL1        0.0472
     31 C         143.7558  139.8437  161.7443 C.3     1  UNL1        0.0472
     32 N         140.4747  140.4186  166.1352 N.pl3   1  UNL1       -0.2967
     33 H         139.7011  140.4342  166.7439 H       1  UNL1        0.1536
     34 C         140.4953  139.4711  164.9726 C.ar    1  UNL1        0.0667
     35 C         141.1357  138.1222  165.1156 C.ar    1  UNL1        0.0159
     36 C         141.1562  137.1747  163.9529 C.ar    1  UNL1        0.0014
     37 C         140.5365  137.5761  162.6472 C.ar    1  UNL1        0.0014
     38 C         139.8962  138.9250  162.5042 C.ar    1  UNL1        0.0196
     39 C         139.8756  139.8725  163.6669 C.ar    1  UNL1        0.1189
     40 S         139.2353  141.2214  163.5239 S.O2    1  UNL1        0.0082
     41 O         140.3119  141.6306  162.5629 O.2     1  UNL1       -0.1686
     42 O         138.1587  140.8122  164.4849 O.2     1  UNL1       -0.1686
     43 C         138.5950  142.5703  163.3809 C.3     1  UNL1        0.1340
     44 C         137.9112  142.9439  162.0993 C.3     1  UNL1        0.0257
     45 C         138.6385  143.5456  164.5198 C.3     1  UNL1        0.0257
@<TRIPOS>BOND
     1    14    15    1
     2    15    16   ar
     3    16    17   ar
     4    17    12    1
     5    12     1    1
     6     1     2   ar
     7     2     3   ar
     8     3    32    1
     9    32    34    1
    10    34    35   ar
    11    35    36   ar
    12    36    37   ar
    13    37    38   ar
    14    38    39   ar
    15    39    40    1
    16    40    41    2
    17    40    42    2
    18    40    43    1
    19    43    44    1
    20    43    45    1
    21     3     4   ar
    22     4     5   ar
    23     5     6    1
    24     5     7   ar
    25     7     8   ar
    26     8     9   ar
    27     9    10   ar
    28    17    18   ar
    29    18    28    1
    30    28    29    1
    31    29    30    1
    32    29    31    1
    33    18    19   ar
    34    19    20   ar
    35    20    21    1
    36    21    22    1
    37    22    23    1
    38    23    24    1
    39    24    25    1
    40    24    26    1
    41    26    27    1
    42    20    15   ar
    43    27    21    1
    44    10     1   ar
    45    39    34   ar
    46     9     4    1
    47    12    13    1
    48    32    33    1
    49    10    11    1
@<TRIPOS>MOLECULE
*****
 45 49 0 0 0
SMALL
GASTEIGER

@<TRIPOS>ATOM
      1 C         139.6274  139.2289  165.5344 C.ar    1  UNL1        0.2006
      2 N         140.3493  140.5244  165.3101 N.ar    1  UNL1       -0.1999
      3 C         140.5268  141.4902  166.4441 C.ar    1  UNL1        0.1391
      4 C         139.9824  141.1604  167.8023 C.ar    1  UNL1        0.0827
      5 C         140.0040  141.9100  169.1014 C.ar    1  UNL1        0.0866
      6 C         140.6251  143.2556  169.3327 C.3     1  UNL1        0.0542
      7 N         139.2955  141.0776  170.1286 N.ar    1  UNL1       -0.1508
      8 N         138.8359  139.8137  169.4643 N.ar    1  UNL1       -0.1305
      9 C         139.2605  139.8648  168.0266 C.ar    1  UNL1        0.1679
     10 N         139.0829  138.8991  166.8926 N.ar    1  UNL1       -0.3104
     11 H         138.6091  138.0487  167.0399 H       1  UNL1        0.1701
     12 N         139.4498  138.2631  164.4005 N.pl3   1  UNL1       -0.2816
     13 H         138.8396  137.4966  164.4976 H       1  UNL1        0.1551
     14 C         143.7550  137.6278  161.5610 C.3     1  UNL1        0.0307
     15 C         142.3546  138.1475  161.6988 C.ar    1  UNL1       -0.0244
     16 C         141.6024  137.9454  162.9807 C.ar    1  UNL1        0.0132
     17 C         140.2020  138.4651  163.1186 C.ar    1  UNL1        0.0845
     18 C         139.5539  139.1868  161.9744 C.ar    1  UNL1        0.1513
     19 C         140.3062  139.3889  160.6924 C.ar    1  UNL1        0.0336
     20 C         141.7064  138.8692  160.5546 C.ar    1  UNL1       -0.0233
     21 C         142.4587  139.0713  159.2727 C.3     1  UNL1        0.0249
     22 C         143.3633  140.2570  159.1129 C.3     1  UNL1        0.0217
     23 C         144.1155  140.4591  157.8310 C.3     1  UNL1        0.0725
     24 N         143.9631  139.4754  156.7089 N.3     1  UNL1       -0.2715
     25 C         144.7153  139.6773  155.4269 C.3     1  UNL1        0.0896
     26 C         143.0584  138.2896  156.8687 C.3     1  UNL1        0.0725
     27 C         142.3062  138.0876  158.1507 C.3     1  UNL1        0.0217
     28 O         138.1536  139.7065  162.1122 O.3     1  UNL1       -0.4779
     29 C         137.9170  141.1642  162.3753 C.3     1  UNL1        0.1662
     30 C         137.4111  141.6122  163.7144 C.3     1  UNL1        0.0472
     31 C         138.1864  142.1738  161.2991 C.3     1  UNL1        0.0472
     32 N         141.2487  142.7858  166.2197 N.pl3   1  UNL1       -0.2967
     33 H         141.8347  143.1508  166.9216 H       1  UNL1        0.1536
     34 C         141.0779  143.5253  164.9259 C.ar    1  UNL1        0.0667
     35 C         139.9291  144.4738  164.7501 C.ar    1  UNL1        0.0159
     36 C         139.7583  145.2132  163.4563 C.ar    1  UNL1        0.0014
     37 C         140.7362  145.0042  162.3382 C.ar    1  UNL1        0.0014
     38 C         141.8849  144.0558  162.5140 C.ar    1  UNL1        0.0196
     39 C         142.0557  143.3163  163.8078 C.ar    1  UNL1        0.1189
     40 S         143.2044  142.3679  163.9836 S.O2    1  UNL1        0.0082
     41 O         142.5651  141.4146  163.0179 O.2     1  UNL1       -0.1686
     42 O         143.8438  143.3211  164.9492 O.2     1  UNL1       -0.1686
     43 C         144.3531  141.4194  164.1593 C.3     1  UNL1        0.1340
     44 C         145.7298  141.8185  163.7172 C.3     1  UNL1        0.0257
     45 C         144.1251  140.0717  164.7773 C.3     1  UNL1        0.0257
@<TRIPOS>BOND
     1    14    15    1
     2    15    16   ar
     3    16    17   ar
     4    17    12    1
     5    12     1    1
     6     1     2   ar
     7     2     3   ar
     8     3    32    1
     9    32    34    1
    10    34    35   ar
    11    35    36   ar
    12    36    37   ar
    13    37    38   ar
    14    38    39   ar
    15    39    40    1
    16    40    41    2
    17    40    42    2
    18    40    43    1
    19    43    44    1
    20    43    45    1
    21     3     4   ar
    22     4     5   ar
    23     5     6    1
    24     5     7   ar
    25     7     8   ar
    26     8     9   ar
    27     9    10   ar
    28    17    18   ar
    29    18    28    1
    30    28    29    1
    31    29    30    1
    32    29    31    1
    33    18    19   ar
    34    19    20   ar
    35    20    21    1
    36    21    22    1
    37    22    23    1
    38    23    24    1
    39    24    25    1
    40    24    26    1
    41    26    27    1
    42    20    15   ar
    43    27    21    1
    44    10     1   ar
    45    39    34   ar
    46     9     4    1
    47    12    13    1
    48    32    33    1
    49    10    11    1
@<TRIPOS>MOLECULE
*****
 45 49 0 0 0
SMALL
GASTEIGER

@<TRIPOS>ATOM
      1 C         139.1350  139.3316  166.2414 C.ar    1  UNL1        0.2006
      2 N         139.7399  140.6356  165.8133 N.ar    1  UNL1       -0.1999
      3 C         140.0969  141.6697  166.8397 C.ar    1  UNL1        0.1391
      4 C         139.8488  141.3996  168.2942 C.ar    1  UNL1        0.0827
      5 C         140.0955  142.2220  169.5241 C.ar    1  UNL1        0.0866
      6 C         140.6904  143.5986  169.5596 C.3     1  UNL1        0.0542
      7 N         139.6430  141.4262  170.7123 N.ar    1  UNL1       -0.1508
      8 N         139.1166  140.1119  170.2167 N.ar    1  UNL1       -0.1305
      9 C         139.2438  140.0954  168.7222 C.ar    1  UNL1        0.1679
     10 N         138.8869  139.0614  167.6958 N.ar    1  UNL1       -0.3104
     11 H         138.4898  138.2055  167.9768 H       1  UNL1        0.1701
     12 N         138.7780  138.2975  165.2150 N.pl3   1  UNL1       -0.2816
     13 H         138.3054  137.4775  165.4860 H       1  UNL1        0.1551
     14 C         137.4934  139.8950  160.4402 C.3     1  UNL1        0.0307
     15 C         138.4989  139.3117  161.3882 C.ar    1  UNL1       -0.0244
     16 C         138.1357  139.0963  162.8276 C.ar    1  UNL1        0.0132
     17 C         139.1412  138.5130  163.7757 C.ar    1  UNL1        0.0845
     18 C         140.5099  138.1451  163.2843 C.ar    1  UNL1        0.1513
     19 C         140.8731  138.3605  161.8449 C.ar    1  UNL1        0.0336
     20 C         139.8676  138.9438  160.8970 C.ar    1  UNL1       -0.0233
     21 C         140.2308  139.1592  159.4576 C.3     1  UNL1        0.0249
     22 C         140.8946  140.4361  159.0346 C.3     1  UNL1        0.0217
     23 C         141.2578  140.6515  157.5953 C.3     1  UNL1        0.0725
     24 N         140.9571  139.5901  156.5790 N.3     1  UNL1       -0.2715
     25 C         141.3202  139.8054  155.1395 C.3     1  UNL1        0.0896
     26 C         140.2932  138.3132  157.0020 C.3     1  UNL1        0.0725
     27 C         139.9301  138.0978  158.4413 C.3     1  UNL1        0.0217
     28 O         141.5154  137.5618  164.2324 O.3     1  UNL1       -0.4779
     29 C         142.6476  138.4060  164.7376 C.3     1  UNL1        0.1662
     30 C         142.7487  138.7285  166.1990 C.3     1  UNL1        0.0472
     31 C         143.6788  138.9278  163.7814 C.3     1  UNL1        0.0472
     32 N         140.7019  142.9738  166.4116 N.pl3   1  UNL1       -0.2967
     33 H         141.4003  143.3967  166.9618 H       1  UNL1        0.1536
     34 C         140.2429  143.6337  165.1451 C.ar    1  UNL1        0.0667
     35 C         138.7928  143.9679  164.9565 C.ar    1  UNL1        0.0159
     36 C         138.3339  144.6278  163.6900 C.ar    1  UNL1        0.0014
     37 C         139.3250  144.9533  162.6122 C.ar    1  UNL1        0.0014
     38 C         140.7751  144.6190  162.8008 C.ar    1  UNL1        0.0196
     39 C         141.2340  143.9592  164.0673 C.ar    1  UNL1        0.1189
     40 S         142.6840  143.6249  164.2559 S.O2    1  UNL1        0.0082
     41 O         143.0151  145.0872  164.3025 O.2     1  UNL1       -0.1686
     42 O         142.3530  142.1626  164.2093 O.2     1  UNL1       -0.1686
     43 C         144.1341  143.2906  164.4445 C.3     1  UNL1        0.1340
     44 C         144.8522  142.4624  163.4207 C.3     1  UNL1        0.0257
     45 C         144.8660  143.7847  165.6571 C.3     1  UNL1        0.0257
@<TRIPOS>BOND
     1    14    15    1
     2    15    16   ar
     3    16    17   ar
     4    17    12    1
     5    12     1    1
     6     1     2   ar
     7     2     3   ar
     8     3    32    1
     9    32    34    1
    10    34    35   ar
    11    35    36   ar
    12    36    37   ar
    13    37    38   ar
    14    38    39   ar
    15    39    40    1
    16    40    41    2
    17    40    42    2
    18    40    43    1
    19    43    44    1
    20    43    45    1
    21     3     4   ar
    22     4     5   ar
    23     5     6    1
    24     5     7   ar
    25     7     8   ar
    26     8     9   ar
    27     9    10   ar
    28    17    18   ar
    29    18    28    1
    30    28    29    1
    31    29    30    1
    32    29    31    1
    33    18    19   ar
    34    19    20   ar
    35    20    21    1
    36    21    22    1
    37    22    23    1
    38    23    24    1
    39    24    25    1
    40    24    26    1
    41    26    27    1
    42    20    15   ar
    43    27    21    1
    44    10     1   ar
    45    39    34   ar
    46     9     4    1
    47    12    13    1
    48    32    33    1
    49    10    11    1
@<TRIPOS>MOLECULE
*****
 45 49 0 0 0
SMALL
GASTEIGER

@<TRIPOS>ATOM
      1 C         139.7091  139.2563  165.1638 C.ar    1  UNL1        0.2006
      2 N         140.5569  140.4797  164.9789 N.ar    1  UNL1       -0.1999
      3 C         140.8047  141.4023  166.1355 C.ar    1  UNL1        0.1391
      4 C         140.2045  141.1014  167.4768 C.ar    1  UNL1        0.0827
      5 C         140.2730  141.8208  168.7912 C.ar    1  UNL1        0.0866
      6 C         141.0166  143.0953  169.0611 C.3     1  UNL1        0.0542
      7 N         139.4675  141.0419  169.7884 N.ar    1  UNL1       -0.1508
      8 N         138.9011  139.8412  169.0903 N.ar    1  UNL1       -0.1305
      9 C         139.3566  139.8779  167.6616 C.ar    1  UNL1        0.1679
     10 N         139.1089  138.9554  166.5051 N.ar    1  UNL1       -0.3104
     11 H         138.5524  138.1523  166.6264 H       1  UNL1        0.1701
     12 N         139.4613  138.3337  164.0072 N.pl3   1  UNL1       -0.2816
     13 H         138.7852  137.6220  164.0814 H       1  UNL1        0.1551
     14 C         143.8623  137.6899  161.3206 C.3     1  UNL1        0.0307
     15 C         142.4444  138.1736  161.3945 C.ar    1  UNL1       -0.0244
     16 C         141.6618  138.0118  162.6639 C.ar    1  UNL1        0.0132
     17 C         140.2438  138.4955  162.7378 C.ar    1  UNL1        0.0845
     18 C         139.6084  139.1411  161.5422 C.ar    1  UNL1        0.1513
     19 C         140.3910  139.3029  160.2727 C.ar    1  UNL1        0.0336
     20 C         141.8088  138.8193  160.1989 C.ar    1  UNL1       -0.0233
     21 C         142.5914  138.9811  158.9294 C.3     1  UNL1        0.0249
     22 C         143.4500  140.1943  158.7272 C.3     1  UNL1        0.0217
     23 C         144.2325  140.3561  157.4578 C.3     1  UNL1        0.0725
     24 N         144.1564  139.3048  156.3906 N.3     1  UNL1       -0.2715
     25 C         144.9389  139.4665  155.1211 C.3     1  UNL1        0.0896
     26 C         143.2977  138.0916  156.5928 C.3     1  UNL1        0.0725
     27 C         142.5152  137.9297  157.8623 C.3     1  UNL1        0.0217
     28 O         138.1905  139.6248  161.6160 O.3     1  UNL1       -0.4779
     29 C         137.9045  141.0662  161.9172 C.3     1  UNL1        0.1662
     30 C         138.1396  142.1125  160.8684 C.3     1  UNL1        0.0472
     31 C         137.3833  141.4612  163.2671 C.3     1  UNL1        0.0472
     32 N         141.6527  142.6258  165.9505 N.pl3   1  UNL1       -0.2967
     33 H         141.4948  143.4228  166.5066 H       1  UNL1        0.1536
     34 C         142.7411  142.6350  164.9185 C.ar    1  UNL1        0.0667
     35 C         143.9978  141.8485  165.1467 C.ar    1  UNL1        0.0159
     36 C         145.0862  141.8578  164.1146 C.ar    1  UNL1        0.0014
     37 C         144.9178  142.6535  162.8542 C.ar    1  UNL1        0.0014
     38 C         143.6611  143.4400  162.6260 C.ar    1  UNL1        0.0196
     39 C         142.5727  143.4308  163.6581 C.ar    1  UNL1        0.1189
     40 S         141.3160  144.2172  163.4299 S.O2    1  UNL1        0.0082
     41 O         141.9591  145.4238  164.0468 O.2     1  UNL1       -0.1686
     42 O         140.6729  143.0107  162.8130 O.2     1  UNL1       -0.1686
     43 C         140.0593  145.0037  163.2017 C.3     1  UNL1        0.1340
     44 C         138.8907  144.8355  164.1269 C.3     1  UNL1        0.0257
     45 C         139.9712  145.9585  162.0482 C.3     1  UNL1        0.0257
@<TRIPOS>BOND
     1    14    15    1
     2    15    16   ar
     3    16    17   ar
     4    17    12    1
     5    12     1    1
     6     1     2   ar
     7     2     3   ar
     8     3    32    1
     9    32    34    1
    10    34    35   ar
    11    35    36   ar
    12    36    37   ar
    13    37    38   ar
    14    38    39   ar
    15    39    40    1
    16    40    41    2
    17    40    42    2
    18    40    43    1
    19    43    44    1
    20    43    45    1
    21     3     4   ar
    22     4     5   ar
    23     5     6    1
    24     5     7   ar
    25     7     8   ar
    26     8     9   ar
    27     9    10   ar
    28    17    18   ar
    29    18    28    1
    30    28    29    1
    31    29    30    1
    32    29    31    1
    33    18    19   ar
    34    19    20   ar
    35    20    21    1
    36    21    22    1
    37    22    23    1
    38    23    24    1
    39    24    25    1
    40    24    26    1
    41    26    27    1
    42    20    15   ar
    43    27    21    1
    44    10     1   ar
    45    39    34   ar
    46     9     4    1
    47    12    13    1
    48    32    33    1
    49    10    11    1
@<TRIPOS>MOLECULE
*****
 45 49 0 0 0
SMALL
GASTEIGER

@<TRIPOS>ATOM
      1 C         141.7814  144.7013  160.4733 C.ar    1  UNL1        0.2006
      2 N         141.2256  143.3147  160.3383 N.ar    1  UNL1       -0.1999
      3 C         140.8031  142.8037  158.9927 C.ar    1  UNL1        0.1391
      4 C         140.9366  143.6794  157.7822 C.ar    1  UNL1        0.0827
      5 C         140.6062  143.4511  156.3370 C.ar    1  UNL1        0.0866
      6 C         140.0260  142.1974  155.7526 C.3     1  UNL1        0.0542
      7 N         140.9579  144.6967  155.5788 N.ar    1  UNL1       -0.1508
      8 N         141.5056  145.6947  156.5555 N.ar    1  UNL1       -0.1305
      9 C         141.4925  145.0660  157.9173 C.ar    1  UNL1        0.1679
     10 N         141.9149  145.5770  159.2628 N.ar    1  UNL1       -0.3104
     11 H         142.2797  146.4871  159.3514 H       1  UNL1        0.1701
     12 N         142.2038  145.2123  161.8189 N.pl3   1  UNL1       -0.2816
     13 H         142.7518  146.0275  161.8861 H       1  UNL1        0.1551
     14 C         138.5935  144.0633  165.3751 C.3     1  UNL1        0.0307
     15 C         139.9862  143.9068  164.8402 C.ar    1  UNL1       -0.0244
     16 C         140.3987  144.6378  163.5970 C.ar    1  UNL1        0.0132
     17 C         141.7913  144.4813  163.0620 C.ar    1  UNL1        0.0845
     18 C         142.7714  143.5938  163.7703 C.ar    1  UNL1        0.1513
     19 C         142.3589  142.8627  165.0135 C.ar    1  UNL1        0.0336
     20 C         140.9664  143.0192  165.5484 C.ar    1  UNL1       -0.0233
     21 C         140.5539  142.2882  166.7916 C.3     1  UNL1        0.0249
     22 C         140.6538  142.9639  168.1270 C.3     1  UNL1        0.0217
     23 C         140.2413  142.2329  169.3702 C.3     1  UNL1        0.0725
     24 N         139.7289  140.8262  169.2779 N.3     1  UNL1       -0.2715
     25 C         139.3163  140.0951  170.5210 C.3     1  UNL1        0.0896
     26 C         139.6289  140.1505  167.9424 C.3     1  UNL1        0.0725
     27 C         140.0414  140.8815  166.6993 C.3     1  UNL1        0.0217
     28 O         144.1641  143.4373  163.2354 O.3     1  UNL1       -0.4779
     29 C         144.6728  142.0787  162.8542 C.3     1  UNL1        0.1662
     30 C         144.1338  141.3909  161.6350 C.3     1  UNL1        0.0472
     31 C         145.7205  141.4079  163.6922 C.3     1  UNL1        0.0472
     32 N         140.2473  141.4170  158.8578 N.pl3   1  UNL1       -0.2967
     33 H         139.4110  141.2681  158.3600 H       1  UNL1        0.1536
     34 C         140.9655  140.2571  159.4813 C.ar    1  UNL1        0.0667
     35 C         142.0452  139.5466  158.7203 C.ar    1  UNL1        0.0159
     36 C         142.7634  138.3867  159.3439 C.ar    1  UNL1        0.0014
     37 C         142.4018  137.9374  160.7286 C.ar    1  UNL1        0.0014
     38 C         141.3220  138.6479  161.4896 C.ar    1  UNL1        0.0196
     39 C         140.6038  139.8078  160.8660 C.ar    1  UNL1        0.1189
     40 S         139.5241  140.5183  161.6271 S.O2    1  UNL1        0.0082
     41 O         138.5089  140.0436  160.6300 O.2     1  UNL1       -0.1686
     42 O         140.5392  140.9931  162.6241 O.2     1  UNL1       -0.1686
     43 C         138.4443  141.2288  162.3881 C.3     1  UNL1        0.1340
     44 C         137.9061  142.5349  161.8836 C.3     1  UNL1        0.0257
     45 C         137.9027  140.6333  163.6539 C.3     1  UNL1        0.0257
@<TRIPOS>BOND
     1    14    15    1
     2    15    16   ar
     3    16    17   ar
     4    17    12    1
     5    12     1    1
     6     1     2   ar
     7     2     3   ar
     8     3    32    1
     9    32    34    1
    10    34    35   ar
    11    35    36   ar
    12    36    37   ar
    13    37    38   ar
    14    38    39   ar
    15    39    40    1
    16    40    41    2
    17    40    42    2
    18    40    43    1
    19    43    44    1
    20    43    45    1
    21     3     4   ar
    22     4     5   ar
    23     5     6    1
    24     5     7   ar
    25     7     8   ar
    26     8     9   ar
    27     9    10   ar
    28    17    18   ar
    29    18    28    1
    30    28    29    1
    31    29    30    1
    32    29    31    1
    33    18    19   ar
    34    19    20   ar
    35    20    21    1
    36    21    22    1
    37    22    23    1
    38    23    24    1
    39    24    25    1
    40    24    26    1
    41    26    27    1
    42    20    15   ar
    43    27    21    1
    44    10     1   ar
    45    39    34   ar
    46     9     4    1
    47    12    13    1
    48    32    33    1
    49    10    11    1
@<TRIPOS>MOLECULE
*****
 45 49 0 0 0
SMALL
GASTEIGER

@<TRIPOS>ATOM
      1 C         141.5249  144.8496  160.8256 C.ar    1  UNL1        0.2006
      2 N         141.8744  143.4099  160.5915 N.ar    1  UNL1       -0.1999
      3 C         142.1883  142.9301  159.2053 C.ar    1  UNL1        0.1391
      4 C         142.1527  143.8902  158.0534 C.ar    1  UNL1        0.0827
      5 C         142.4136  143.7090  156.5874 C.ar    1  UNL1        0.0866
      6 C         142.7956  142.4254  155.9119 C.3     1  UNL1        0.0542
      7 N         142.2252  145.0369  155.9156 N.ar    1  UNL1       -0.1508
      8 N         141.8480  146.0387  156.9663 N.ar    1  UNL1       -0.1305
      9 C         141.8032  145.3300  158.2876 C.ar    1  UNL1        0.1679
     10 N         141.4893  145.8097  159.6737 N.ar    1  UNL1       -0.3104
     11 H         141.2598  146.7547  159.8274 H       1  UNL1        0.1701
     12 N         141.2109  145.3294  162.2118 N.pl3   1  UNL1       -0.2816
     13 H         140.8296  146.2269  162.3475 H       1  UNL1        0.1551
     14 C         144.5518  143.1824  165.5629 C.3     1  UNL1        0.0307
     15 C         143.1485  143.3683  165.0667 C.ar    1  UNL1       -0.0244
     16 C         142.8813  144.2559  163.8874 C.ar    1  UNL1        0.0132
     17 C         141.4780  144.4418  163.3911 C.ar    1  UNL1        0.0845
     18 C         140.3419  143.7400  164.0741 C.ar    1  UNL1        0.1513
     19 C         140.6090  142.8523  165.2535 C.ar    1  UNL1        0.0336
     20 C         142.0122  142.6664  165.7497 C.ar    1  UNL1       -0.0233
     21 C         142.2793  141.7788  166.9290 C.3     1  UNL1        0.0249
     22 C         142.4365  140.2998  166.7341 C.3     1  UNL1        0.0217
     23 C         142.7037  139.4122  167.9134 C.3     1  UNL1        0.0725
     24 N         142.8136  140.0035  169.2875 N.3     1  UNL1       -0.2715
     25 C         143.0807  139.1159  170.4669 C.3     1  UNL1        0.0896
     26 C         142.6564  141.4825  169.4824 C.3     1  UNL1        0.0725
     27 C         142.3892  142.3701  168.3031 C.3     1  UNL1        0.0217
     28 O         138.9386  143.9258  163.5779 O.3     1  UNL1       -0.4779
     29 C         138.2712  142.8374  162.7904 C.3     1  UNL1        0.1662
     30 C         138.4566  142.7658  161.3036 C.3     1  UNL1        0.0472
     31 C         137.4185  141.8207  163.4897 C.3     1  UNL1        0.0472
     32 N         142.5379  141.4903  158.9712 N.pl3   1  UNL1       -0.2967
     33 H         143.3596  141.2565  158.4820 H       1  UNL1        0.1536
     34 C         141.6354  140.4068  159.4824 C.ar    1  UNL1        0.0667
     35 C         140.4590  139.9624  158.6647 C.ar    1  UNL1        0.0159
     36 C         139.5566  138.8789  159.1759 C.ar    1  UNL1        0.0014
     37 C         139.8305  138.2396  160.5050 C.ar    1  UNL1        0.0014
     38 C         141.0069  138.6839  161.3227 C.ar    1  UNL1        0.0196
     39 C         141.9093  139.7675  160.8115 C.ar    1  UNL1        0.1189
     40 S         143.0857  140.2118  161.6292 S.O2    1  UNL1        0.0082
     41 O         144.0155  139.5960  160.6261 O.2     1  UNL1       -0.1686
     42 O         142.1558  140.8276  162.6323 O.2     1  UNL1       -0.1686
     43 C         144.2620  140.6561  162.4470 C.3     1  UNL1        0.1340
     44 C         144.6728  139.8721  163.6579 C.3     1  UNL1        0.0257
     45 C         145.0277  141.8846  162.0537 C.3     1  UNL1        0.0257
@<TRIPOS>BOND
     1    14    15    1
     2    15    16   ar
     3    16    17   ar
     4    17    12    1
     5    12     1    1
     6     1     2   ar
     7     2     3   ar
     8     3    32    1
     9    32    34    1
    10    34    35   ar
    11    35    36   ar
    12    36    37   ar
    13    37    38   ar
    14    38    39   ar
    15    39    40    1
    16    40    41    2
    17    40    42    2
    18    40    43    1
    19    43    44    1
    20    43    45    1
    21     3     4   ar
    22     4     5   ar
    23     5     6    1
    24     5     7   ar
    25     7     8   ar
    26     8     9   ar
    27     9    10   ar
    28    17    18   ar
    29    18    28    1
    30    28    29    1
    31    29    30    1
    32    29    31    1
    33    18    19   ar
    34    19    20   ar
    35    20    21    1
    36    21    22    1
    37    22    23    1
    38    23    24    1
    39    24    25    1
    40    24    26    1
    41    26    27    1
    42    20    15   ar
    43    27    21    1
    44    10     1   ar
    45    39    34   ar
    46     9     4    1
    47    12    13    1
    48    32    33    1
    49    10    11    1
@<TRIPOS>MOLECULE
*****
 45 49 0 0 0
SMALL
GASTEIGER

@<TRIPOS>ATOM
      1 C         143.5522  142.5727  165.2964 C.ar    1  UNL1        0.2006
      2 N         142.0792  142.3118  165.1864 N.ar    1  UNL1       -0.1999
      3 C         141.2479  142.1702  166.4270 C.ar    1  UNL1        0.1391
      4 C         141.8897  142.2896  167.7775 C.ar    1  UNL1        0.0827
      5 C         141.3304  142.1967  169.1662 C.ar    1  UNL1        0.0866
      6 C         139.8957  141.9446  169.5239 C.3     1  UNL1        0.0542
      7 N         142.4579  142.4003  170.1344 N.ar    1  UNL1       -0.1508
      8 N         143.7139  142.6189  169.3441 N.ar    1  UNL1       -0.1305
      9 C         143.3627  142.5505  167.8874 C.ar    1  UNL1        0.1679
     10 N         144.1940  142.6921  166.6468 N.ar    1  UNL1       -0.3104
     11 H         145.1608  142.8634  166.7190 H       1  UNL1        0.1701
     12 N         144.3835  142.7143  164.0558 N.pl3   1  UNL1       -0.2816
     13 H         145.1882  143.2815  164.0645 H       1  UNL1        0.1551
     14 C         143.9844  138.3018  161.3408 C.3     1  UNL1        0.0307
     15 C         143.7892  139.7854  161.4445 C.ar    1  UNL1       -0.0244
     16 C         144.1839  140.5080  162.6983 C.ar    1  UNL1        0.0132
     17 C         143.9888  141.9917  162.8020 C.ar    1  UNL1        0.0845
     18 C         143.3988  142.7527  161.6519 C.ar    1  UNL1        0.1513
     19 C         143.0041  142.0301  160.3980 C.ar    1  UNL1        0.0336
     20 C         143.1992  140.5465  160.2943 C.ar    1  UNL1       -0.0233
     21 C         142.8045  139.8239  159.0406 C.3     1  UNL1        0.0249
     22 C         141.5328  139.0293  159.0016 C.3     1  UNL1        0.0217
     23 C         141.1381  138.3067  157.7478 C.3     1  UNL1        0.0725
     24 N         142.0150  138.3787  156.5330 N.3     1  UNL1       -0.2715
     25 C         141.6204  137.6560  155.2791 C.3     1  UNL1        0.0896
     26 C         143.2867  139.1733  156.5720 C.3     1  UNL1        0.0725
     27 C         143.6814  139.8959  157.8257 C.3     1  UNL1        0.0217
     28 O         143.2036  144.2364  161.7555 O.3     1  UNL1       -0.4779
     29 C         141.8918  144.7890  162.2285 C.3     1  UNL1        0.1662
     30 C         140.6903  144.7403  161.3318 C.3     1  UNL1        0.0472
     31 C         141.7815  145.3904  163.5983 C.3     1  UNL1        0.0472
     32 N         139.7748  141.9093  166.3170 N.pl3   1  UNL1       -0.2967
     33 H         139.2934  141.4828  167.0624 H       1  UNL1        0.1536
     34 C         139.0353  142.2980  165.0712 C.ar    1  UNL1        0.0667
     35 C         138.5784  143.7140  164.8812 C.ar    1  UNL1        0.0159
     36 C         137.8388  144.1026  163.6354 C.ar    1  UNL1        0.0014
     37 C         137.5562  143.0753  162.5796 C.ar    1  UNL1        0.0014
     38 C         138.0131  141.6593  162.7696 C.ar    1  UNL1        0.0196
     39 C         138.7527  141.2706  164.0154 C.ar    1  UNL1        0.1189
     40 S         139.2096  139.8546  164.2054 S.O2    1  UNL1        0.0082
     41 O         138.1230  139.6397  165.2169 O.2     1  UNL1       -0.1686
     42 O         140.2962  140.0695  163.1940 O.2     1  UNL1       -0.1686
     43 C         139.6665  138.4386  164.3954 C.3     1  UNL1        0.1340
     44 C         138.8424  137.4877  165.2118 C.3     1  UNL1        0.0257
     45 C         140.9477  137.9735  163.7690 C.3     1  UNL1        0.0257
@<TRIPOS>BOND
     1    14    15    1
     2    15    16   ar
     3    16    17   ar
     4    17    12    1
     5    12     1    1
     6     1     2   ar
     7     2     3   ar
     8     3    32    1
     9    32    34    1
    10    34    35   ar
    11    35    36   ar
    12    36    37   ar
    13    37    38   ar
    14    38    39   ar
    15    39    40    1
    16    40    41    2
    17    40    42    2
    18    40    43    1
    19    43    44    1
    20    43    45    1
    21     3     4   ar
    22     4     5   ar
    23     5     6    1
    24     5     7   ar
    25     7     8   ar
    26     8     9   ar
    27     9    10   ar
    28    17    18   ar
    29    18    28    1
    30    28    29    1
    31    29    30    1
    32    29    31    1
    33    18    19   ar
    34    19    20   ar
    35    20    21    1
    36    21    22    1
    37    22    23    1
    38    23    24    1
    39    24    25    1
    40    24    26    1
    41    26    27    1
    42    20    15   ar
    43    27    21    1
    44    10     1   ar
    45    39    34   ar
    46     9     4    1
    47    12    13    1
    48    32    33    1
    49    10    11    1
