@<TRIPOS>MOLECULE
*****
 35 38 0 0 0
SMALL
GASTEIGER

@<TRIPOS>ATOM
      1 C         142.1727  140.1505  164.2764 C.2     1  UNL1        0.1397
      2 C         142.6677  140.4474  162.8919 C.2     1  UNL1        0.1355
      3 N         142.2232  141.6953  162.1881 N.pl3   1  UNL1       -0.1998
      4 C         141.2839  142.6462  162.8688 C.2     1  UNL1        0.3442
      5 N         140.7889  142.3492  164.2532 N.2     1  UNL1       -0.0580
      6 C         141.2334  141.1014  164.9570 C.3     1  UNL1        0.2692
      7 H         142.5481  141.8902  161.2794 H       1  UNL1        0.2983
      8 C         140.7384  140.8044  166.3416 C.ar    1  UNL1        0.0371
      9 C         139.4740  140.0206  166.5340 C.ar    1  UNL1        0.0030
     10 C         138.9790  139.7236  167.9185 C.ar    1  UNL1        0.0295
     11 C         139.7484  140.2105  169.1106 C.ar    1  UNL1        0.1406
     12 F         139.2534  139.9136  170.4950 F       1  UNL1       -0.2042
     13 C         141.0128  140.9943  168.9182 C.ar    1  UNL1        0.0362
     14 C         141.5077  141.2913  167.5336 C.ar    1  UNL1        0.0372
     15 BR        142.7721  142.0751  167.3412 Br      1  UNL1       -0.0491
     16 C         140.8394  143.8940  162.1650 C.ar    1  UNL1        0.1931
     17 N         140.9855  144.1795  160.6996 N.ar    1  UNL1       -0.2297
     18 C         140.4073  145.5374  160.4320 C.ar    1  UNL1        0.1067
     19 C         139.9038  146.0912  161.7319 C.ar    1  UNL1        0.0577
     20 S         140.1709  145.0756  162.8029 S.2     1  UNL1       -0.0586
     21 C         142.6172  138.9026  164.9802 C.2     1  UNL1        0.3447
     22 O         143.9364  138.8732  165.6934 O.2     1  UNL1       -0.2450
     23 O         141.7423  137.6842  164.9708 O.3     1  UNL1       -0.4455
     24 C         139.5120  137.6266  163.6395 C.3     1  UNL1        0.0513
     25 C         140.9773  137.3197  163.7331 C.3     1  UNL1        0.2089
     26 C         143.6071  139.4965  162.2111 C.3     1  UNL1        0.1405
     27 N         143.4976  139.2630  160.7335 N.3     1  UNL1       -0.2614
     28 C         142.8194  138.0286  160.2175 C.3     1  UNL1        0.1050
     29 C         142.7099  137.7952  158.7397 C.3     1  UNL1        0.1599
     30 O         143.2785  138.7961  157.7782 O.3     1  UNL1       -0.3478
     31 C         143.9567  140.0305  158.2942 C.3     1  UNL1        0.1671
     32 C         144.0662  140.2640  159.7718 C.3     1  UNL1        0.1082
     33 C         144.5253  141.0315  157.3326 C.2     1  UNL1        0.0787
     34 O         145.4990  140.5911  156.2800 O.co2   1  UNL1       -0.5467
     35 O         144.1204  142.4730  157.4236 O.co2   1  UNL1       -0.5467
@<TRIPOS>UNITY_ATOM_ATTR
34 1
charge -1
@<TRIPOS>BOND
     1    24    25    1
     2    25    23    1
     3    23    21    1
     4    21    22    2
     5    21     1    1
     6     1     2    2
     7     2    26    1
     8    26    27    1
     9    27    28    1
    10    28    29    1
    11    29    30    1
    12    30    31    1
    13    31    33    1
    14    33    34   ar
    15    33    35   ar
    16    31    32    1
    17     2     3    1
    18     3     4    1
    19     4    16    1
    20    16    17   ar
    21    17    18   ar
    22    18    19   ar
    23    19    20   ar
    24     4     5    2
    25     5     6    1
    26     6     8    1
    27     8     9   ar
    28     9    10   ar
    29    10    11   ar
    30    11    12    1
    31    11    13   ar
    32    13    14   ar
    33    14    15    1
    34     6     1    1
    35    14     8   ar
    36    32    27    1
    37    20    16   ar
    38     3     7    1
@<TRIPOS>MOLECULE
*****
 35 38 0 0 0
SMALL
GASTEIGER

@<TRIPOS>ATOM
      1 C         142.0327  140.0767  164.1666 C.2     1  UNL1        0.1397
      2 C         142.4785  140.3607  162.7628 C.2     1  UNL1        0.1355
      3 N         142.0506  141.6268  162.0817 N.pl3   1  UNL1       -0.1998
      4 C         141.1769  142.6088  162.8043 C.2     1  UNL1        0.3442
      5 N         140.7311  142.3248  164.2080 N.2     1  UNL1       -0.0580
      6 C         141.1590  141.0588  164.8892 C.3     1  UNL1        0.2692
      7 H         142.3432  141.8132  161.1603 H       1  UNL1        0.2983
      8 C         140.7132  140.7748  166.2930 C.ar    1  UNL1        0.0371
      9 C         139.4483  140.0063  166.5372 C.ar    1  UNL1        0.0030
     10 C         139.0025  139.7223  167.9410 C.ar    1  UNL1        0.0295
     11 C         139.8215  140.2068  169.1006 C.ar    1  UNL1        0.1406
     12 F         139.3756  139.9228  170.5043 F       1  UNL1       -0.2042
     13 C         141.0863  140.9753  168.8563 C.ar    1  UNL1        0.0362
     14 C         141.5321  141.2593  167.4525 C.ar    1  UNL1        0.0372
     15 BR        142.7969  142.0278  167.2083 Br      1  UNL1       -0.0491
     16 C         140.7490  143.8749  162.1231 C.ar    1  UNL1        0.1931
     17 N         140.0470  145.0311  162.7715 N.ar    1  UNL1       -0.2297
     18 C         139.8121  146.0779  161.7231 C.ar    1  UNL1        0.1067
     19 C         140.3689  145.5686  160.4267 C.ar    1  UNL1        0.0577
     20 S         140.9480  144.2071  160.6740 S.2     1  UNL1       -0.0586
     21 C         142.4606  138.8106  164.8477 C.2     1  UNL1        0.3447
     22 O         143.8090  138.7285  165.4997 O.2     1  UNL1       -0.2450
     23 O         141.5401  137.6267  164.8770 O.3     1  UNL1       -0.4455
     24 C         139.2771  137.6713  163.6013 C.3     1  UNL1        0.0513
     25 C         140.7241  137.2810  163.6668 C.3     1  UNL1        0.2089
     26 C         143.3522  139.3786  162.0402 C.3     1  UNL1        0.1405
     27 N         143.4045  139.3827  160.5411 N.3     1  UNL1       -0.2614
     28 C         144.0630  140.5191  159.8167 C.3     1  UNL1        0.1050
     29 C         144.1152  140.5231  158.3175 C.3     1  UNL1        0.1599
     30 O         143.5090  139.3907  157.5429 O.3     1  UNL1       -0.3478
     31 C         142.8505  138.2542  158.2674 C.3     1  UNL1        0.1671
     32 C         142.7983  138.2502  159.7664 C.3     1  UNL1        0.1082
     33 C         142.2443  137.1218  157.4928 C.2     1  UNL1        0.0787
     34 O         143.0266  135.8613  157.2711 O.co2   1  UNL1       -0.5467
     35 O         140.8558  137.2499  156.9398 O.co2   1  UNL1       -0.5467
@<TRIPOS>UNITY_ATOM_ATTR
34 1
charge -1
@<TRIPOS>BOND
     1    24    25    1
     2    25    23    1
     3    23    21    1
     4    21    22    2
     5    21     1    1
     6     1     2    2
     7     2    26    1
     8    26    27    1
     9    27    28    1
    10    28    29    1
    11    29    30    1
    12    30    31    1
    13    31    33    1
    14    33    34   ar
    15    33    35   ar
    16    31    32    1
    17     2     3    1
    18     3     4    1
    19     4    16    1
    20    16    17   ar
    21    17    18   ar
    22    18    19   ar
    23    19    20   ar
    24     4     5    2
    25     5     6    1
    26     6     8    1
    27     8     9   ar
    28     9    10   ar
    29    10    11   ar
    30    11    12    1
    31    11    13   ar
    32    13    14   ar
    33    14    15    1
    34     6     1    1
    35    14     8   ar
    36    32    27    1
    37    20    16   ar
    38     3     7    1
@<TRIPOS>MOLECULE
*****
 35 38 0 0 0
SMALL
GASTEIGER

@<TRIPOS>ATOM
      1 C         141.6167  139.9394  164.1070 C.2     1  UNL1        0.1397
      2 C         141.8801  140.1614  162.6471 C.2     1  UNL1        0.1355
      3 N         141.5291  141.4746  162.0128 N.pl3   1  UNL1       -0.1998
      4 C         140.9148  142.5658  162.8385 C.2     1  UNL1        0.3442
      5 N         140.6515  142.3439  164.2984 N.2     1  UNL1       -0.0580
      6 C         141.0024  141.0306  164.9326 C.3     1  UNL1        0.2692
      7 H         141.7019  141.6202  161.0546 H       1  UNL1        0.2983
      8 C         140.7391  140.8087  166.3926 C.ar    1  UNL1        0.0371
      9 C         139.4895  140.1040  166.8306 C.ar    1  UNL1        0.0030
     10 C         139.2261  139.8821  168.2905 C.ar    1  UNL1        0.0295
     11 C         140.2123  140.3648  169.3125 C.ar    1  UNL1        0.1406
     12 F         139.9490  140.1429  170.7724 F       1  UNL1       -0.2042
     13 C         141.4620  141.0695  168.8744 C.ar    1  UNL1        0.0362
     14 C         141.7253  141.2914  167.4145 C.ar    1  UNL1        0.0372
     15 BR        142.9750  141.9961  166.9764 Br      1  UNL1       -0.0491
     16 C         140.5638  143.8790  162.2042 C.ar    1  UNL1        0.1931
     17 N         140.8850  144.2932  160.7988 N.ar    1  UNL1       -0.2297
     18 C         140.3497  145.6788  160.5900 C.ar    1  UNL1        0.1067
     19 C         139.6977  146.1210  161.8664 C.ar    1  UNL1        0.0577
     20 S         139.8300  145.0087  162.8640 S.2     1  UNL1       -0.0586
     21 C         141.9677  138.6262  164.7412 C.2     1  UNL1        0.3447
     22 O         143.2021  138.5069  165.5850 O.2     1  UNL1       -0.2450
     23 O         141.0843  137.4322  164.5317 O.3     1  UNL1       -0.4455
     24 C         138.8499  137.6321  163.2212 C.3     1  UNL1        0.0513
     25 C         139.5932  137.5947  164.5236 C.3     1  UNL1        0.2089
     26 C         142.4944  139.0701  161.8213 C.3     1  UNL1        0.1405
     27 N         141.8892  138.6980  160.5003 N.3     1  UNL1       -0.2614
     28 C         140.4383  138.9723  160.2362 C.3     1  UNL1        0.1050
     29 C         139.8330  138.6002  158.9150 C.3     1  UNL1        0.1599
     30 O         140.6787  137.9538  157.8581 O.3     1  UNL1       -0.3478
     31 C         142.1295  137.6795  158.1223 C.3     1  UNL1        0.1671
     32 C         142.7348  138.0516  159.4433 C.3     1  UNL1        0.1082
     33 C         142.9751  137.0332  157.0653 C.2     1  UNL1        0.0787
     34 O         143.9968  137.8428  156.3232 O.co2   1  UNL1       -0.5467
     35 O         142.7991  135.5771  156.7505 O.co2   1  UNL1       -0.5467
@<TRIPOS>UNITY_ATOM_ATTR
34 1
charge -1
@<TRIPOS>BOND
     1    24    25    1
     2    25    23    1
     3    23    21    1
     4    21    22    2
     5    21     1    1
     6     1     2    2
     7     2    26    1
     8    26    27    1
     9    27    28    1
    10    28    29    1
    11    29    30    1
    12    30    31    1
    13    31    33    1
    14    33    34   ar
    15    33    35   ar
    16    31    32    1
    17     2     3    1
    18     3     4    1
    19     4    16    1
    20    16    17   ar
    21    17    18   ar
    22    18    19   ar
    23    19    20   ar
    24     4     5    2
    25     5     6    1
    26     6     8    1
    27     8     9   ar
    28     9    10   ar
    29    10    11   ar
    30    11    12    1
    31    11    13   ar
    32    13    14   ar
    33    14    15    1
    34     6     1    1
    35    14     8   ar
    36    32    27    1
    37    20    16   ar
    38     3     7    1
@<TRIPOS>MOLECULE
*****
 35 38 0 0 0
SMALL
GASTEIGER

@<TRIPOS>ATOM
      1 C         139.6825  141.1492  161.1974 C.2     1  UNL1        0.1397
      2 C         139.8424  140.4074  159.9036 C.2     1  UNL1        0.1355
      3 N         139.4456  141.0583  158.6118 N.pl3   1  UNL1       -0.1998
      4 C         138.8888  142.4511  158.6138 C.2     1  UNL1        0.3442
      5 N         138.7289  143.1930  159.9076 N.2     1  UNL1       -0.0580
      6 C         139.1257  142.5420  161.1994 C.3     1  UNL1        0.2692
      7 H         139.5506  140.5714  157.7626 H       1  UNL1        0.2983
      8 C         138.9657  143.2840  162.4933 C.ar    1  UNL1        0.0371
      9 C         137.6848  143.1759  163.2663 C.ar    1  UNL1        0.0030
     10 C         137.5248  143.9178  164.5601 C.ar    1  UNL1        0.0295
     11 C         138.6458  144.7678  165.0809 C.ar    1  UNL1        0.1406
     12 F         138.4858  145.5096  166.3747 F       1  UNL1       -0.2042
     13 C         139.9267  144.8758  164.3079 C.ar    1  UNL1        0.0362
     14 C         140.0866  144.1339  163.0140 C.ar    1  UNL1        0.0372
     15 BR        141.3675  144.2419  162.2410 Br      1  UNL1       -0.0491
     16 C         138.4920  143.1021  157.3219 C.ar    1  UNL1        0.1931
     17 N         139.2279  144.2118  156.6313 N.ar    1  UNL1       -0.2297
     18 C         138.4803  144.5532  155.3765 C.ar    1  UNL1        0.1067
     19 C         137.2824  143.6544  155.2915 C.ar    1  UNL1        0.0577
     20 S         137.2897  142.7576  156.4939 S.2     1  UNL1       -0.0586
     21 C         140.0793  140.4983  162.4892 C.2     1  UNL1        0.3447
     22 O         141.4132  140.8029  163.1038 O.2     1  UNL1       -0.2450
     23 O         139.1422  139.5427  163.1664 O.3     1  UNL1       -0.4455
     24 C         139.0287  140.5561  165.5561 C.3     1  UNL1        0.0513
     25 C         138.3376  139.9929  164.3496 C.3     1  UNL1        0.2089
     26 C         140.3992  139.0145  159.9015 C.3     1  UNL1        0.1405
     27 N         140.9179  138.4160  158.6277 N.3     1  UNL1       -0.2614
     28 C         142.3959  138.2868  158.4070 C.3     1  UNL1        0.1050
     29 C         142.9146  137.6883  157.1331 C.3     1  UNL1        0.1599
     30 O         141.9552  137.2190  156.0799 O.3     1  UNL1       -0.3478
     31 C         140.4771  137.3481  156.3006 C.3     1  UNL1        0.1671
     32 C         139.9585  137.9466  157.5744 C.3     1  UNL1        0.1082
     33 C         139.5177  136.8788  155.2474 C.2     1  UNL1        0.0787
     34 O         138.0455  137.1104  155.4171 O.co2   1  UNL1       -0.5467
     35 O         140.0306  136.1778  154.0244 O.co2   1  UNL1       -0.5467
@<TRIPOS>UNITY_ATOM_ATTR
34 1
charge -1
@<TRIPOS>BOND
     1    24    25    1
     2    25    23    1
     3    23    21    1
     4    21    22    2
     5    21     1    1
     6     1     2    2
     7     2    26    1
     8    26    27    1
     9    27    28    1
    10    28    29    1
    11    29    30    1
    12    30    31    1
    13    31    33    1
    14    33    34   ar
    15    33    35   ar
    16    31    32    1
    17     2     3    1
    18     3     4    1
    19     4    16    1
    20    16    17   ar
    21    17    18   ar
    22    18    19   ar
    23    19    20   ar
    24     4     5    2
    25     5     6    1
    26     6     8    1
    27     8     9   ar
    28     9    10   ar
    29    10    11   ar
    30    11    12    1
    31    11    13   ar
    32    13    14   ar
    33    14    15    1
    34     6     1    1
    35    14     8   ar
    36    32    27    1
    37    20    16   ar
    38     3     7    1
@<TRIPOS>MOLECULE
*****
 35 38 0 0 0
SMALL
GASTEIGER

@<TRIPOS>ATOM
      1 C         142.4587  143.3168  159.8779 C.2     1  UNL1        0.1397
      2 C         143.4040  143.2667  158.7144 C.2     1  UNL1        0.1355
      3 N         143.0581  143.9712  157.4361 N.pl3   1  UNL1       -0.1998
      4 C         141.7668  144.7257  157.3213 C.2     1  UNL1        0.3442
      5 N         140.8215  144.7758  158.4848 N.2     1  UNL1       -0.0580
      6 C         141.1674  144.0713  159.7631 C.3     1  UNL1        0.2692
      7 H         143.6786  143.9383  156.6725 H       1  UNL1        0.2983
      8 C         140.2220  144.1214  160.9267 C.ar    1  UNL1        0.0371
      9 C         140.3821  145.1791  161.9781 C.ar    1  UNL1        0.0030
     10 C         139.4368  145.2293  163.1416 C.ar    1  UNL1        0.0295
     11 C         138.3312  144.2216  163.2537 C.ar    1  UNL1        0.1406
     12 F         137.3859  144.2718  164.4172 F       1  UNL1       -0.2042
     13 C         138.1711  143.1639  162.2022 C.ar    1  UNL1        0.0362
     14 C         139.1165  143.1138  161.0387 C.ar    1  UNL1        0.0372
     15 BR        138.9564  142.0561  159.9872 Br      1  UNL1       -0.0491
     16 C         141.4209  145.4302  156.0430 C.ar    1  UNL1        0.1931
     17 N         142.1199  145.2619  154.7265 N.ar    1  UNL1       -0.2297
     18 C         141.4462  146.1543  153.7266 C.ar    1  UNL1        0.1067
     19 C         140.3309  146.8742  154.4251 C.ar    1  UNL1        0.0577
     20 S         140.3153  146.4266  155.8567 S.2     1  UNL1       -0.0586
     21 C         142.8046  142.6123  161.1562 C.2     1  UNL1        0.3447
     22 O         142.1798  141.2864  161.4747 O.2     1  UNL1       -0.2450
     23 O         143.7754  143.2337  162.1161 O.3     1  UNL1       -0.4455
     24 C         143.5275  145.0979  163.9088 C.3     1  UNL1        0.0513
     25 C         143.3096  143.6800  163.4703 C.3     1  UNL1        0.2089
     26 C         144.6954  142.5121  158.8292 C.3     1  UNL1        0.1405
     27 N         145.3379  141.9343  157.6032 N.3     1  UNL1       -0.2614
     28 C         146.5911  142.5482  157.0529 C.3     1  UNL1        0.1050
     29 C         147.2336  141.9702  155.8268 C.3     1  UNL1        0.1599
     30 O         146.6229  140.7785  155.1510 O.3     1  UNL1       -0.3478
     31 C         145.3698  140.1646  155.7013 C.3     1  UNL1        0.1671
     32 C         144.7273  140.7424  156.9273 C.3     1  UNL1        0.1082
     33 C         144.7591  138.9728  155.0254 C.2     1  UNL1        0.0787
     34 O         144.9905  137.5973  155.5773 O.co2   1  UNL1       -0.5467
     35 O         143.9171  139.1565  153.7977 O.co2   1  UNL1       -0.5467
@<TRIPOS>UNITY_ATOM_ATTR
34 1
charge -1
@<TRIPOS>BOND
     1    24    25    1
     2    25    23    1
     3    23    21    1
     4    21    22    2
     5    21     1    1
     6     1     2    2
     7     2    26    1
     8    26    27    1
     9    27    28    1
    10    28    29    1
    11    29    30    1
    12    30    31    1
    13    31    33    1
    14    33    34   ar
    15    33    35   ar
    16    31    32    1
    17     2     3    1
    18     3     4    1
    19     4    16    1
    20    16    17   ar
    21    17    18   ar
    22    18    19   ar
    23    19    20   ar
    24     4     5    2
    25     5     6    1
    26     6     8    1
    27     8     9   ar
    28     9    10   ar
    29    10    11   ar
    30    11    12    1
    31    11    13   ar
    32    13    14   ar
    33    14    15    1
    34     6     1    1
    35    14     8   ar
    36    32    27    1
    37    20    16   ar
    38     3     7    1
@<TRIPOS>MOLECULE
*****
 35 38 0 0 0
SMALL
GASTEIGER

@<TRIPOS>ATOM
      1 C         140.3052  141.4601  160.9143 C.2     1  UNL1        0.1397
      2 C         140.5720  140.7954  159.5964 C.2     1  UNL1        0.1355
      3 N         139.9777  141.3573  158.3390 N.pl3   1  UNL1       -0.1998
      4 C         139.1166  142.5840  158.3996 C.2     1  UNL1        0.3442
      5 N         138.8498  143.2487  159.7175 N.2     1  UNL1       -0.0580
      6 C         139.4441  142.6868  160.9748 C.3     1  UNL1        0.2692
      7 H         140.1529  140.9210  157.4740 H       1  UNL1        0.2983
      8 C         139.1772  143.3516  162.2928 C.ar    1  UNL1        0.0371
      9 C         137.9592  142.9817  163.0863 C.ar    1  UNL1        0.0030
     10 C         137.6923  143.6465  164.4042 C.ar    1  UNL1        0.0295
     11 C         138.6435  144.6811  164.9286 C.ar    1  UNL1        0.1406
     12 F         138.3766  145.3458  166.2465 F       1  UNL1       -0.2042
     13 C         139.8615  145.0509  164.1351 C.ar    1  UNL1        0.0362
     14 C         140.1284  144.3861  162.8172 C.ar    1  UNL1        0.0372
     15 BR        141.3464  144.7559  162.0236 Br      1  UNL1       -0.0491
     16 C         138.5223  143.1460  157.1422 C.ar    1  UNL1        0.1931
     17 N         139.0537  144.3100  156.3594 N.ar    1  UNL1       -0.2297
     18 C         138.1521  144.5260  155.1802 C.ar    1  UNL1        0.1067
     19 C         137.0635  143.4955  155.2342 C.ar    1  UNL1        0.0577
     20 S         137.2923  142.6426  156.4467 S.2     1  UNL1       -0.0586
     21 C         140.8995  140.8981  162.1717 C.2     1  UNL1        0.3447
     22 O         142.2984  141.2655  162.5694 O.2     1  UNL1       -0.2450
     23 O         140.0950  139.9689  163.0314 O.3     1  UNL1       -0.4455
     24 C         138.8373  138.0603  161.7961 C.3     1  UNL1        0.0513
     25 C         138.8181  139.3802  162.5087 C.3     1  UNL1        0.2089
     26 C         141.4332  139.5686  159.5359 C.3     1  UNL1        0.1405
     27 N         141.3508  138.6522  158.3512 N.3     1  UNL1       -0.2614
     28 C         140.0131  138.2077  157.8385 C.3     1  UNL1        0.1050
     29 C         139.9308  137.2912  156.6538 C.3     1  UNL1        0.1599
     30 O         141.1861  136.8193  155.9820 O.3     1  UNL1       -0.3478
     31 C         142.5238  137.2638  156.4947 C.3     1  UNL1        0.1671
     32 C         142.6062  138.1803  157.6793 C.3     1  UNL1        0.1082
     33 C         143.7792  136.7920  155.8229 C.2     1  UNL1        0.0787
     34 O         143.8706  135.3867  155.3064 O.co2   1  UNL1       -0.5467
     35 O         144.9431  137.7254  155.6675 O.co2   1  UNL1       -0.5467
@<TRIPOS>UNITY_ATOM_ATTR
34 1
charge -1
@<TRIPOS>BOND
     1    24    25    1
     2    25    23    1
     3    23    21    1
     4    21    22    2
     5    21     1    1
     6     1     2    2
     7     2    26    1
     8    26    27    1
     9    27    28    1
    10    28    29    1
    11    29    30    1
    12    30    31    1
    13    31    33    1
    14    33    34   ar
    15    33    35   ar
    16    31    32    1
    17     2     3    1
    18     3     4    1
    19     4    16    1
    20    16    17   ar
    21    17    18   ar
    22    18    19   ar
    23    19    20   ar
    24     4     5    2
    25     5     6    1
    26     6     8    1
    27     8     9   ar
    28     9    10   ar
    29    10    11   ar
    30    11    12    1
    31    11    13   ar
    32    13    14   ar
    33    14    15    1
    34     6     1    1
    35    14     8   ar
    36    32    27    1
    37    20    16   ar
    38     3     7    1
@<TRIPOS>MOLECULE
*****
 35 38 0 0 0
SMALL
GASTEIGER

@<TRIPOS>ATOM
      1 C         139.8580  141.1904  160.8607 C.2     1  UNL1        0.1397
      2 C         140.0187  140.4547  159.5635 C.2     1  UNL1        0.1355
      3 N         139.3990  140.9992  158.3107 N.pl3   1  UNL1       -0.1998
      4 C         138.6186  142.2794  158.3552 C.2     1  UNL1        0.3442
      5 N         138.4579  143.0151  159.6524 N.2     1  UNL1       -0.0580
      6 C         139.0776  142.4706  160.9052 C.3     1  UNL1        0.2692
      7 H         139.5044  140.5164  157.4593 H       1  UNL1        0.2983
      8 C         138.9169  143.2064  162.2025 C.ar    1  UNL1        0.0371
      9 C         137.7676  142.8832  163.1106 C.ar    1  UNL1        0.0030
     10 C         137.6068  143.6189  164.4078 C.ar    1  UNL1        0.0295
     11 C         138.5955  144.6779  164.7970 C.ar    1  UNL1        0.1406
     12 F         138.4347  145.4136  166.0943 F       1  UNL1       -0.2042
     13 C         139.7448  145.0010  163.8889 C.ar    1  UNL1        0.0362
     14 C         139.9055  144.2652  162.5916 C.ar    1  UNL1        0.0372
     15 BR        141.0548  144.5884  161.6836 Br      1  UNL1       -0.0491
     16 C         137.9989  142.8240  157.1024 C.ar    1  UNL1        0.1931
     17 N         138.4411  144.0507  156.3612 N.ar    1  UNL1       -0.2297
     18 C         137.5437  144.2223  155.1715 C.ar    1  UNL1        0.1067
     19 C         136.5468  143.1015  155.1775 C.ar    1  UNL1        0.0577
     20 S         136.8281  142.2373  156.3708 S.2     1  UNL1       -0.0586
     21 C         140.4777  140.6459  162.1135 C.2     1  UNL1        0.3447
     22 O         141.8195  141.1426  162.5636 O.2     1  UNL1       -0.2450
     23 O         139.7555  139.6047  162.9162 O.3     1  UNL1       -0.4455
     24 C         137.9003  138.1630  161.8072 C.3     1  UNL1        0.0513
     25 C         138.3036  139.3315  162.6570 C.3     1  UNL1        0.2089
     26 C         140.7991  139.1744  159.5190 C.3     1  UNL1        0.1405
     27 N         141.8847  138.9929  158.5000 N.3     1  UNL1       -0.2614
     28 C         141.9501  137.7319  157.6903 C.3     1  UNL1        0.1050
     29 C         143.0358  137.5504  156.6713 C.3     1  UNL1        0.1599
     30 O         144.0561  138.6298  156.4620 O.3     1  UNL1       -0.3478
     31 C         143.9907  139.8908  157.2717 C.3     1  UNL1        0.1671
     32 C         142.9051  140.0724  158.2907 C.3     1  UNL1        0.1082
     33 C         145.0110  140.9702  157.0625 C.2     1  UNL1        0.0787
     34 O         145.9896  140.8680  155.9303 O.co2   1  UNL1       -0.5467
     35 O         145.0526  142.1520  157.9854 O.co2   1  UNL1       -0.5467
@<TRIPOS>UNITY_ATOM_ATTR
34 1
charge -1
@<TRIPOS>BOND
     1    24    25    1
     2    25    23    1
     3    23    21    1
     4    21    22    2
     5    21     1    1
     6     1     2    2
     7     2    26    1
     8    26    27    1
     9    27    28    1
    10    28    29    1
    11    29    30    1
    12    30    31    1
    13    31    33    1
    14    33    34   ar
    15    33    35   ar
    16    31    32    1
    17     2     3    1
    18     3     4    1
    19     4    16    1
    20    16    17   ar
    21    17    18   ar
    22    18    19   ar
    23    19    20   ar
    24     4     5    2
    25     5     6    1
    26     6     8    1
    27     8     9   ar
    28     9    10   ar
    29    10    11   ar
    30    11    12    1
    31    11    13   ar
    32    13    14   ar
    33    14    15    1
    34     6     1    1
    35    14     8   ar
    36    32    27    1
    37    20    16   ar
    38     3     7    1
@<TRIPOS>MOLECULE
*****
 35 38 0 0 0
SMALL
GASTEIGER

@<TRIPOS>ATOM
      1 C         141.7471  139.6552  161.3831 C.2     1  UNL1        0.1397
      2 C         142.2977  139.8202  159.9976 C.2     1  UNL1        0.1355
      3 N         142.1584  141.1336  159.2867 N.pl3   1  UNL1       -0.1998
      4 C         141.4685  142.2821  159.9612 C.2     1  UNL1        0.3442
      5 N         140.9178  142.1171  161.3467 N.2     1  UNL1       -0.0580
      6 C         141.0571  140.8036  162.0576 C.3     1  UNL1        0.2692
      7 H         142.5198  141.2419  158.3774 H       1  UNL1        0.2983
      8 C         140.5065  140.6386  163.4431 C.ar    1  UNL1        0.0371
      9 C         141.3762  140.9148  164.6336 C.ar    1  UNL1        0.0030
     10 C         140.8256  140.7499  166.0191 C.ar    1  UNL1        0.0295
     11 C         139.4052  140.3087  166.2141 C.ar    1  UNL1        0.1406
     12 F         138.8546  140.1438  167.5996 F       1  UNL1       -0.2042
     13 C         138.5355  140.0326  165.0236 C.ar    1  UNL1        0.0362
     14 C         139.0861  140.1975  163.6381 C.ar    1  UNL1        0.0372
     15 BR        138.2164  139.9214  162.4476 Br      1  UNL1       -0.0491
     16 C         141.3292  143.5955  159.2503 C.ar    1  UNL1        0.1931
     17 N         142.4500  144.4107  158.6765 N.ar    1  UNL1       -0.2297
     18 C         141.8581  145.6434  158.0599 C.ar    1  UNL1        0.1067
     19 C         140.3715  145.5901  158.2526 C.ar    1  UNL1        0.0577
     20 S         140.0446  144.3244  158.9882 S.2     1  UNL1       -0.0586
     21 C         141.8864  138.3417  162.0940 C.2     1  UNL1        0.3447
     22 O         140.7603  137.3512  162.0672 O.2     1  UNL1       -0.2450
     23 O         143.1518  138.0187  162.8318 O.3     1  UNL1       -0.4455
     24 C         144.7344  139.3681  164.3890 C.3     1  UNL1        0.0513
     25 C         144.2016  139.0739  163.0180 C.3     1  UNL1        0.2089
     26 C         142.9877  138.6717  159.3231 C.3     1  UNL1        0.1405
     27 N         142.2961  137.9231  158.2225 N.3     1  UNL1       -0.2614
     28 C         142.9473  136.7183  157.6106 C.3     1  UNL1        0.1050
     29 C         142.2557  135.9696  156.5100 C.3     1  UNL1        0.1599
     30 O         140.9129  136.4258  156.0213 O.3     1  UNL1       -0.3478
     31 C         140.2617  137.6306  156.6332 C.3     1  UNL1        0.1671
     32 C         140.9533  138.3792  157.7338 C.3     1  UNL1        0.1082
     33 C         138.9190  138.0868  156.1445 C.2     1  UNL1        0.0787
     34 O         138.4432  139.4768  156.4472 O.co2   1  UNL1       -0.5467
     35 O         138.0519  137.1530  155.3531 O.co2   1  UNL1       -0.5467
@<TRIPOS>UNITY_ATOM_ATTR
34 1
charge -1
@<TRIPOS>BOND
     1    24    25    1
     2    25    23    1
     3    23    21    1
     4    21    22    2
     5    21     1    1
     6     1     2    2
     7     2    26    1
     8    26    27    1
     9    27    28    1
    10    28    29    1
    11    29    30    1
    12    30    31    1
    13    31    33    1
    14    33    34   ar
    15    33    35   ar
    16    31    32    1
    17     2     3    1
    18     3     4    1
    19     4    16    1
    20    16    17   ar
    21    17    18   ar
    22    18    19   ar
    23    19    20   ar
    24     4     5    2
    25     5     6    1
    26     6     8    1
    27     8     9   ar
    28     9    10   ar
    29    10    11   ar
    30    11    12    1
    31    11    13   ar
    32    13    14   ar
    33    14    15    1
    34     6     1    1
    35    14     8   ar
    36    32    27    1
    37    20    16   ar
    38     3     7    1
@<TRIPOS>MOLECULE
*****
 35 38 0 0 0
SMALL
GASTEIGER

@<TRIPOS>ATOM
      1 C         140.4518  140.6563  165.0973 C.2     1  UNL1        0.1397
      2 C         140.0650  140.5057  163.6559 C.2     1  UNL1        0.1355
      3 N         139.9447  141.7182  162.7810 N.pl3   1  UNL1       -0.1998
      4 C         140.2113  143.0812  163.3474 C.2     1  UNL1        0.3442
      5 N         140.5981  143.2319  164.7888 N.2     1  UNL1       -0.0580
      6 C         140.7183  142.0194  165.6637 C.3     1  UNL1        0.2692
      7 H         139.6908  141.6193  161.8349 H       1  UNL1        0.2983
      8 C         141.1052  142.1701  167.1052 C.ar    1  UNL1        0.0371
      9 C         140.0478  142.1724  168.1692 C.ar    1  UNL1        0.0030
     10 C         140.4346  142.3231  169.6106 C.ar    1  UNL1        0.0295
     11 C         141.8788  142.4714  169.9880 C.ar    1  UNL1        0.1406
     12 F         142.2656  142.6221  171.4294 F       1  UNL1       -0.2042
     13 C         142.9361  142.4691  168.9241 C.ar    1  UNL1        0.0362
     14 C         142.5493  142.3184  167.4826 C.ar    1  UNL1        0.0372
     15 BR        143.6066  142.3161  166.4187 Br      1  UNL1       -0.0491
     16 C         140.0910  144.2937  162.4725 C.ar    1  UNL1        0.1931
     17 N         139.4077  145.5787  162.8356 N.ar    1  UNL1       -0.2297
     18 C         139.5273  146.5132  161.6683 C.ar    1  UNL1        0.1067
     19 C         140.2846  145.8058  160.5839 C.ar    1  UNL1        0.0577
     20 S         140.6330  144.4341  161.0809 S.2     1  UNL1       -0.0586
     21 C         140.5721  139.4439  165.9722 C.2     1  UNL1        0.3447
     22 O         139.3440  138.8304  166.5766 O.2     1  UNL1       -0.2450
     23 O         141.9204  138.8449  166.2427 O.3     1  UNL1       -0.4455
     24 C         143.8258  139.0618  164.4898 C.3     1  UNL1        0.0513
     25 C         142.7220  138.2625  165.1165 C.3     1  UNL1        0.2089
     26 C         139.7984  139.1426  163.0893 C.3     1  UNL1        0.1405
     27 N         140.0755  138.8648  161.6416 N.3     1  UNL1       -0.2614
     28 C         138.9431  138.5599  160.7063 C.3     1  UNL1        0.1050
     29 C         139.2202  138.2820  159.2585 C.3     1  UNL1        0.1599
     30 O         140.6296  138.3092  158.7460 O.3     1  UNL1       -0.3478
     31 C         141.7620  138.6141  159.6813 C.3     1  UNL1        0.1671
     32 C         141.4850  138.8919  161.1290 C.3     1  UNL1        0.1082
     33 C         143.1715  138.6412  159.1688 C.2     1  UNL1        0.0787
     34 O         143.4499  138.3501  157.7239 O.co2   1  UNL1       -0.5467
     35 O         144.3026  138.9594  160.1012 O.co2   1  UNL1       -0.5467
@<TRIPOS>UNITY_ATOM_ATTR
34 1
charge -1
@<TRIPOS>BOND
     1    24    25    1
     2    25    23    1
     3    23    21    1
     4    21    22    2
     5    21     1    1
     6     1     2    2
     7     2    26    1
     8    26    27    1
     9    27    28    1
    10    28    29    1
    11    29    30    1
    12    30    31    1
    13    31    33    1
    14    33    34   ar
    15    33    35   ar
    16    31    32    1
    17     2     3    1
    18     3     4    1
    19     4    16    1
    20    16    17   ar
    21    17    18   ar
    22    18    19   ar
    23    19    20   ar
    24     4     5    2
    25     5     6    1
    26     6     8    1
    27     8     9   ar
    28     9    10   ar
    29    10    11   ar
    30    11    12    1
    31    11    13   ar
    32    13    14   ar
    33    14    15    1
    34     6     1    1
    35    14     8   ar
    36    32    27    1
    37    20    16   ar
    38     3     7    1
