@<TRIPOS>MOLECULE
*****
 39 41 0 0 0
SMALL
GASTEIGER

@<TRIPOS>ATOM
      1 C         143.0572  141.2333  159.0064 C.2     1  UNL1        0.2485
      2 O         143.7746  141.2057  160.3235 O.2     1  UNL1       -0.2726
      3 N         141.6934  141.8500  158.9081 N.am    1  UNL1       -0.2823
      4 H         141.2226  141.8682  158.0437 H       1  UNL1        0.1549
      5 C         147.3023  141.7182  155.3485 C.ar    1  UNL1        0.1054
      6 C         147.0124  142.6086  156.5202 C.ar    1  UNL1        0.0181
      7 C         145.8284  142.3310  157.3983 C.ar    1  UNL1       -0.0011
      8 C         144.9343  141.1630  157.1047 C.ar    1  UNL1        0.0022
      9 C         145.2242  140.2726  155.9330 C.ar    1  UNL1       -0.0030
     10 C         146.4082  140.5502  155.0549 C.ar    1  UNL1        0.0155
     11 C         144.1727  139.2035  155.8918 C.3     1  UNL1        0.1207
     12 N         143.2330  139.4333  157.0381 N.am    1  UNL1       -0.2634
     13 C         142.0332  138.5987  157.3756 C.2     1  UNL1        0.2563
     14 O         141.1822  138.9525  158.5591 O.2     1  UNL1       -0.2721
     15 C         143.7037  140.6444  157.7877 C.3     1  UNL1        0.1751
     16 C         149.6703  142.2734  153.5922 C.3     1  UNL1        0.1816
     17 S         148.4863  141.9958  154.4703 S.O2    1  UNL1        0.0104
     18 O         149.4067  141.6876  155.6139 O.2     1  UNL1       -0.1686
     19 O         147.5658  142.3040  153.3267 O.2     1  UNL1       -0.1686
     20 C         141.6843  137.4102  156.5296 C.3     1  UNL1        0.2232
     21 O         140.3184  136.7975  156.6237 O.3     1  UNL1       -0.3737
     22 H         140.1977  136.4105  157.5049 H       1  UNL1        0.2110
     23 C         141.0470  142.4390  160.1268 C.ar    1  UNL1        0.0503
     24 C         140.4741  141.5388  161.1811 C.ar    1  UNL1        0.0144
     25 C         139.8276  142.1278  162.3998 C.ar    1  UNL1       -0.0002
     26 C         139.7540  143.6169  162.5643 C.ar    1  UNL1        0.0182
     27 C         140.3269  144.5171  161.5100 C.ar    1  UNL1       -0.0002
     28 C         140.9734  143.9281  160.2913 C.ar    1  UNL1        0.0144
     29 C         139.1076  144.2059  163.7829 C.3     1  UNL1        0.2827
     30 O         137.9704  144.7019  162.9400 O.3     1  UNL1       -0.3692
     31 H         138.1193  144.4497  162.0153 H       1  UNL1        0.2112
     32 C         138.4612  144.7948  165.0016 C.3     1  UNL1        0.4311
     33 F         137.8147  145.3838  166.2203 F       1  UNL1       -0.1669
     34 F         137.3245  143.8253  164.8673 F       1  UNL1       -0.1669
     35 F         139.0808  145.4055  165.1681 F       1  UNL1       -0.1669
     36 C         140.2449  143.7098  164.6259 C.3     1  UNL1        0.4311
     37 F         141.3821  143.2138  165.4689 F       1  UNL1       -0.1669
     38 F         140.8639  144.2554  164.3039 F       1  UNL1       -0.1669
     39 F         139.6307  142.6276  165.4635 F       1  UNL1       -0.1669
@<TRIPOS>BOND
     1    16    17    1
     2    17    18    2
     3    17    19    2
     4    17     5    1
     5     5     6   ar
     6     6     7   ar
     7     7     8   ar
     8     8     9   ar
     9     9    10   ar
    10     9    11    1
    11    11    12    1
    12    12    13   am
    13    13    14    2
    14    13    20    1
    15    20    21    1
    16    12    15    1
    17    15     1    1
    18     1     2    2
    19     1     3   am
    20     3    23    1
    21    23    24   ar
    22    24    25   ar
    23    25    26   ar
    24    26    29    1
    25    29    30    1
    26    29    32    1
    27    32    33    1
    28    32    34    1
    29    32    35    1
    30    29    36    1
    31    36    37    1
    32    36    38    1
    33    36    39    1
    34    26    27   ar
    35    27    28   ar
    36    10     5   ar
    37    28    23   ar
    38    15     8    1
    39    21    22    1
    40     3     4    1
    41    30    31    1
@<TRIPOS>MOLECULE
*****
 39 41 0 0 0
SMALL
GASTEIGER

@<TRIPOS>ATOM
      1 C         142.5065  137.6609  157.7527 C.2     1  UNL1        0.2485
      2 O         143.6718  138.5457  157.4227 O.2     1  UNL1       -0.2726
      3 N         141.8945  137.7062  159.1214 N.am    1  UNL1       -0.2823
      4 H         141.1296  137.1254  159.3381 H       1  UNL1        0.1549
      5 C         143.1555  132.6929  155.1965 C.ar    1  UNL1        0.1054
      6 C         144.0199  133.2741  156.2758 C.ar    1  UNL1        0.0181
      7 C         143.6988  134.6224  156.8493 C.ar    1  UNL1       -0.0011
      8 C         142.5133  135.3896  156.3435 C.ar    1  UNL1        0.0022
      9 C         141.6489  134.8085  155.2641 C.ar    1  UNL1       -0.0030
     10 C         141.9700  133.4602  154.6906 C.ar    1  UNL1        0.0155
     11 C         140.5544  135.7906  154.9677 C.3     1  UNL1        0.1207
     12 N         140.7425  136.9786  155.8638 N.am    1  UNL1       -0.2634
     13 C         139.8727  138.2001  155.9029 C.2     1  UNL1        0.2563
     14 O         140.1864  139.3140  156.8572 O.2     1  UNL1       -0.2721
     15 C         141.9531  136.7308  156.7141 C.3     1  UNL1        0.1751
     16 C         143.7976  129.9963  154.0495 C.3     1  UNL1        0.1816
     17 S         143.4765  131.3446  154.6230 S.O2    1  UNL1        0.0104
     18 O         142.2643  131.4300  153.7436 O.2     1  UNL1       -0.1686
     19 O         144.6887  131.2592  155.5023 O.2     1  UNL1       -0.1686
     20 C         138.6891  138.3075  154.9876 C.3     1  UNL1        0.2232
     21 O         137.4810  137.4495  155.2200 O.3     1  UNL1       -0.3737
     22 H         137.7131  136.5186  155.0766 H       1  UNL1        0.2110
     23 C         142.4478  138.6363  160.1601 C.ar    1  UNL1        0.0503
     24 C         143.6159  138.2126  161.0003 C.ar    1  UNL1        0.0144
     25 C         144.1692  139.1427  162.0390 C.ar    1  UNL1       -0.0002
     26 C         143.5546  140.4965  162.2373 C.ar    1  UNL1        0.0182
     27 C         142.3865  140.9201  161.3970 C.ar    1  UNL1       -0.0002
     28 C         141.8331  139.9901  160.3584 C.ar    1  UNL1        0.0144
     29 C         144.1079  141.4265  163.2759 C.3     1  UNL1        0.2827
     30 O         144.4136  142.4358  162.2092 O.3     1  UNL1       -0.3692
     31 H         144.1421  142.0863  161.3461 H       1  UNL1        0.2112
     32 C         144.6613  142.3566  164.3146 C.3     1  UNL1        0.4311
     33 F         145.2146  143.2867  165.3532 F       1  UNL1       -0.1669
     34 F         146.0492  142.0947  163.8097 F       1  UNL1       -0.1669
     35 F         143.8876  142.5771  164.6852 F       1  UNL1       -0.1669
     36 C         143.8022  140.4173  164.3426 C.3     1  UNL1        0.4311
     37 F         143.4965  139.4080  165.4094 F       1  UNL1       -0.1669
     38 F         142.9237  140.5301  164.3496 F       1  UNL1       -0.1669
     39 F         145.1461  139.8658  164.7164 F       1  UNL1       -0.1669
@<TRIPOS>BOND
     1    16    17    1
     2    17    18    2
     3    17    19    2
     4    17     5    1
     5     5     6   ar
     6     6     7   ar
     7     7     8   ar
     8     8     9   ar
     9     9    10   ar
    10     9    11    1
    11    11    12    1
    12    12    13   am
    13    13    14    2
    14    13    20    1
    15    20    21    1
    16    12    15    1
    17    15     1    1
    18     1     2    2
    19     1     3   am
    20     3    23    1
    21    23    24   ar
    22    24    25   ar
    23    25    26   ar
    24    26    29    1
    25    29    30    1
    26    29    32    1
    27    32    33    1
    28    32    34    1
    29    32    35    1
    30    29    36    1
    31    36    37    1
    32    36    38    1
    33    36    39    1
    34    26    27   ar
    35    27    28   ar
    36    10     5   ar
    37    28    23   ar
    38    15     8    1
    39    21    22    1
    40     3     4    1
    41    30    31    1
@<TRIPOS>MOLECULE
*****
 39 41 0 0 0
SMALL
GASTEIGER

@<TRIPOS>ATOM
      1 C         142.5889  137.9542  158.1667 C.2     1  UNL1        0.2485
      2 O         143.7465  138.8610  157.8706 O.2     1  UNL1       -0.2726
      3 N         141.9351  137.9891  159.5163 N.am    1  UNL1       -0.2823
      4 H         141.1753  137.3940  159.7107 H       1  UNL1        0.1549
      5 C         143.3136  132.9293  155.7456 C.ar    1  UNL1        0.1054
      6 C         144.1199  133.5183  156.8650 C.ar    1  UNL1        0.0181
      7 C         143.7859  134.8819  157.3932 C.ar    1  UNL1       -0.0011
      8 C         142.6455  135.6565  156.8021 C.ar    1  UNL1        0.0022
      9 C         141.8392  135.0676  155.6827 C.ar    1  UNL1       -0.0030
     10 C         142.1733  133.7040  155.1545 C.ar    1  UNL1        0.0155
     11 C         140.7804  136.0597  155.3022 C.3     1  UNL1        0.1207
     12 N         140.9324  137.2618  156.1864 N.am    1  UNL1       -0.2634
     13 C         140.0811  138.4964  156.1501 C.2     1  UNL1        0.2563
     14 O         140.3538  139.6237  157.1013 O.2     1  UNL1       -0.2721
     15 C         142.0851  137.0126  157.1134 C.3     1  UNL1        0.1751
     16 C         143.9817  130.2021  154.6892 C.3     1  UNL1        0.1816
     17 S         143.6476  131.5657  155.2174 S.O2    1  UNL1        0.0104
     18 O         142.2590  131.4398  154.6643 O.2     1  UNL1       -0.1686
     19 O         145.0362  131.6916  155.7706 O.2     1  UNL1       -0.1686
     20 C         138.9572  138.6036  155.1625 C.3     1  UNL1        0.2232
     21 O         137.7589  137.7105  155.2901 O.3     1  UNL1       -0.3737
     22 H         138.0237  136.7902  155.1354 H       1  UNL1        0.2110
     23 C         142.4389  138.9307  160.5697 C.ar    1  UNL1        0.0503
     24 C         141.7824  140.2661  160.7580 C.ar    1  UNL1        0.0144
     25 C         142.2862  141.2077  161.8113 C.ar    1  UNL1       -0.0002
     26 C         143.4466  140.8139  162.6764 C.ar    1  UNL1        0.0182
     27 C         144.1032  139.4785  162.4881 C.ar    1  UNL1       -0.0002
     28 C         143.5993  138.5369  161.4347 C.ar    1  UNL1        0.0144
     29 C         143.9504  141.7555  163.7297 C.3     1  UNL1        0.2827
     30 O         143.5187  140.7933  164.7964 O.3     1  UNL1       -0.3692
     31 H         143.1184  140.0118  164.3841 H       1  UNL1        0.2112
     32 C         144.4542  142.6971  164.7831 C.3     1  UNL1        0.4311
     33 F         144.9580  143.6387  165.8364 F       1  UNL1       -0.1669
     34 F         143.0439  142.9654  165.2178 F       1  UNL1       -0.1669
     35 F         145.3171  142.6076  164.6041 F       1  UNL1       -0.1669
     36 C         144.3821  142.7178  162.6631 C.3     1  UNL1        0.4311
     37 F         144.8138  143.6800  161.5965 F       1  UNL1       -0.1669
     38 F         143.7623  143.3321  162.8145 F       1  UNL1       -0.1669
     39 F         145.5642  142.0483  162.0272 F       1  UNL1       -0.1669
@<TRIPOS>BOND
     1    16    17    1
     2    17    18    2
     3    17    19    2
     4    17     5    1
     5     5     6   ar
     6     6     7   ar
     7     7     8   ar
     8     8     9   ar
     9     9    10   ar
    10     9    11    1
    11    11    12    1
    12    12    13   am
    13    13    14    2
    14    13    20    1
    15    20    21    1
    16    12    15    1
    17    15     1    1
    18     1     2    2
    19     1     3   am
    20     3    23    1
    21    23    24   ar
    22    24    25   ar
    23    25    26   ar
    24    26    29    1
    25    29    30    1
    26    29    32    1
    27    32    33    1
    28    32    34    1
    29    32    35    1
    30    29    36    1
    31    36    37    1
    32    36    38    1
    33    36    39    1
    34    26    27   ar
    35    27    28   ar
    36    10     5   ar
    37    28    23   ar
    38    15     8    1
    39    21    22    1
    40     3     4    1
    41    30    31    1
@<TRIPOS>MOLECULE
*****
 39 41 0 0 0
SMALL
GASTEIGER

@<TRIPOS>ATOM
      1 C         142.1061  140.9381  158.6319 C.2     1  UNL1        0.2485
      2 O         140.7806  141.5312  158.2565 O.2     1  UNL1       -0.2726
      3 N         142.6203  141.0781  160.0341 N.am    1  UNL1       -0.2823
      4 H         143.4903  140.6888  160.2805 H       1  UNL1        0.1549
      5 C         142.3823  136.3503  155.3897 C.ar    1  UNL1        0.1054
      6 C         141.2914  136.7118  156.3536 C.ar    1  UNL1        0.0181
      7 C         141.3796  137.9839  157.1435 C.ar    1  UNL1       -0.0011
      8 C         142.5587  138.8946  156.9693 C.ar    1  UNL1        0.0022
      9 C         143.6496  138.5331  156.0054 C.ar    1  UNL1       -0.0030
     10 C         143.5614  137.2610  155.2155 C.ar    1  UNL1        0.0155
     11 C         144.6826  139.6200  156.0455 C.3     1  UNL1        0.1207
     12 N         144.2302  140.6532  157.0343 N.am    1  UNL1       -0.2634
     13 C         144.9619  141.9135  157.3898 C.2     1  UNL1        0.2563
     14 O         144.3830  142.8566  158.4024 O.2     1  UNL1       -0.2721
     15 C         142.9175  140.2049  157.6053 C.3     1  UNL1        0.1751
     16 C         142.2058  133.8060  153.8100 C.3     1  UNL1        0.1816
     17 S         142.2940  135.0781  154.5998 S.O2    1  UNL1        0.0104
     18 O         142.2924  135.8694  153.3255 O.2     1  UNL1       -0.1686
     19 O         142.2956  134.2868  155.8741 O.2     1  UNL1       -0.1686
     20 C         146.2725  142.2306  156.7327 C.3     1  UNL1        0.2232
     21 O         147.1361  143.3310  157.2741 O.3     1  UNL1       -0.3737
     22 H         146.6860  144.1823  157.1577 H       1  UNL1        0.2110
     23 C         141.8089  141.8113  161.0607 C.ar    1  UNL1        0.0503
     24 C         140.8859  141.0535  161.9683 C.ar    1  UNL1        0.0144
     25 C         140.0745  141.7867  162.9950 C.ar    1  UNL1       -0.0002
     26 C         140.1860  143.2777  163.1141 C.ar    1  UNL1        0.0182
     27 C         141.1090  144.0356  162.2065 C.ar    1  UNL1       -0.0002
     28 C         141.9204  143.3024  161.1798 C.ar    1  UNL1        0.0144
     29 C         139.3746  144.0109  164.1407 C.3     1  UNL1        0.2827
     30 O         138.4737  144.5287  163.0589 O.3     1  UNL1       -0.3692
     31 H         138.7742  144.1933  162.1998 H       1  UNL1        0.2112
     32 C         138.5632  144.7441  165.1674 C.3     1  UNL1        0.4311
     33 F         137.7518  145.4774  166.1940 F       1  UNL1       -0.1669
     34 F         137.4103  143.8177  164.9178 F       1  UNL1       -0.1669
     35 F         139.1806  145.3399  165.3875 F       1  UNL1       -0.1669
     36 C         140.2755  143.4932  165.2225 C.3     1  UNL1        0.4311
     37 F         141.1764  142.9754  166.3043 F       1  UNL1       -0.1669
     38 F         140.9754  144.0018  165.0329 F       1  UNL1       -0.1669
     39 F         139.4422  142.4641  165.9273 F       1  UNL1       -0.1669
@<TRIPOS>BOND
     1    16    17    1
     2    17    18    2
     3    17    19    2
     4    17     5    1
     5     5     6   ar
     6     6     7   ar
     7     7     8   ar
     8     8     9   ar
     9     9    10   ar
    10     9    11    1
    11    11    12    1
    12    12    13   am
    13    13    14    2
    14    13    20    1
    15    20    21    1
    16    12    15    1
    17    15     1    1
    18     1     2    2
    19     1     3   am
    20     3    23    1
    21    23    24   ar
    22    24    25   ar
    23    25    26   ar
    24    26    29    1
    25    29    30    1
    26    29    32    1
    27    32    33    1
    28    32    34    1
    29    32    35    1
    30    29    36    1
    31    36    37    1
    32    36    38    1
    33    36    39    1
    34    26    27   ar
    35    27    28   ar
    36    10     5   ar
    37    28    23   ar
    38    15     8    1
    39    21    22    1
    40     3     4    1
    41    30    31    1
@<TRIPOS>MOLECULE
*****
 39 41 0 0 0
SMALL
GASTEIGER

@<TRIPOS>ATOM
      1 C         141.6020  142.3581  162.5554 C.2     1  UNL1        0.2485
      2 O         140.8256  141.1168  162.8815 O.2     1  UNL1       -0.2726
      3 N         142.1564  143.2078  163.6602 N.am    1  UNL1       -0.2823
      4 H         142.6659  144.0226  163.4461 H       1  UNL1        0.1549
      5 C         144.0567  140.9106  157.7061 C.ar    1  UNL1        0.1054
      6 C         144.1007  140.1566  159.0021 C.ar    1  UNL1        0.0181
      7 C         143.3834  140.6918  160.2059 C.ar    1  UNL1       -0.0011
      8 C         142.6221  141.9809  160.1137 C.ar    1  UNL1        0.0022
      9 C         142.5781  142.7349  158.8177 C.ar    1  UNL1       -0.0030
     10 C         143.2954  142.1997  157.6139 C.ar    1  UNL1        0.0155
     11 C         141.7526  143.9697  159.0276 C.3     1  UNL1        0.1207
     12 N         141.2865  143.9788  160.4533 N.am    1  UNL1       -0.2634
     13 C         140.4328  145.0321  161.0951 C.2     1  UNL1        0.2563
     14 O         140.0441  144.9058  162.5383 O.2     1  UNL1       -0.2721
     15 C         141.8239  142.7497  161.1245 C.3     1  UNL1        0.1751
     16 C         145.4912  139.8402  155.2986 C.3     1  UNL1        0.1816
     17 S         144.7740  140.3754  156.5023 S.O2    1  UNL1        0.0104
     18 O         145.5295  141.6653  156.3791 O.2     1  UNL1       -0.1686
     19 O         144.0184  139.0855  156.6256 O.2     1  UNL1       -0.1686
     20 C         139.9679  146.2117  160.2936 C.3     1  UNL1        0.2232
     21 O         138.8433  147.0658  160.7994 O.3     1  UNL1       -0.3737
     22 H         138.0242  146.5465  160.8140 H       1  UNL1        0.2110
     23 C         141.9345  142.8162  165.0910 C.ar    1  UNL1        0.0503
     24 C         140.5919  143.0255  165.7263 C.ar    1  UNL1        0.0144
     25 C         140.3700  142.6340  167.1572 C.ar    1  UNL1       -0.0002
     26 C         141.4906  142.0331  167.9528 C.ar    1  UNL1        0.0182
     27 C         142.8332  141.8238  167.3175 C.ar    1  UNL1       -0.0002
     28 C         143.0551  142.2154  165.8867 C.ar    1  UNL1        0.0144
     29 C         141.2687  141.6415  169.3837 C.3     1  UNL1        0.2827
     30 O         141.4531  140.1986  169.0174 O.3     1  UNL1       -0.3692
     31 H         141.6281  140.1264  168.0661 H       1  UNL1        0.2112
     32 C         141.0468  141.2499  170.8146 C.3     1  UNL1        0.4311
     33 F         140.8248  140.8583  172.2454 F       1  UNL1       -0.1669
     34 F         139.7893  140.5319  170.4231 F       1  UNL1       -0.1669
     35 F         141.7678  141.6425  171.1470 F       1  UNL1       -0.1669
     36 C         141.0842  143.0843  169.7500 C.3     1  UNL1        0.4311
     37 F         140.8998  144.5271  170.1162 F       1  UNL1       -0.1669
     38 F         141.9113  143.3473  169.5727 F       1  UNL1       -0.1669
     39 F         139.6485  143.1701  170.1756 F       1  UNL1       -0.1669
@<TRIPOS>BOND
     1    16    17    1
     2    17    18    2
     3    17    19    2
     4    17     5    1
     5     5     6   ar
     6     6     7   ar
     7     7     8   ar
     8     8     9   ar
     9     9    10   ar
    10     9    11    1
    11    11    12    1
    12    12    13   am
    13    13    14    2
    14    13    20    1
    15    20    21    1
    16    12    15    1
    17    15     1    1
    18     1     2    2
    19     1     3   am
    20     3    23    1
    21    23    24   ar
    22    24    25   ar
    23    25    26   ar
    24    26    29    1
    25    29    30    1
    26    29    32    1
    27    32    33    1
    28    32    34    1
    29    32    35    1
    30    29    36    1
    31    36    37    1
    32    36    38    1
    33    36    39    1
    34    26    27   ar
    35    27    28   ar
    36    10     5   ar
    37    28    23   ar
    38    15     8    1
    39    21    22    1
    40     3     4    1
    41    30    31    1
@<TRIPOS>MOLECULE
*****
 39 41 0 0 0
SMALL
GASTEIGER

@<TRIPOS>ATOM
      1 C         141.3994  139.5316  159.2322 C.2     1  UNL1        0.2485
      2 O         140.9081  140.8519  159.7473 O.2     1  UNL1       -0.2726
      3 N         141.2428  138.2955  160.0674 N.am    1  UNL1       -0.2823
      4 H         141.5653  137.4289  159.7294 H       1  UNL1        0.1549
      5 C         145.7012  141.2905  156.0641 C.ar    1  UNL1        0.1054
      6 C         145.4175  141.6611  157.4896 C.ar    1  UNL1        0.0181
      7 C         144.2161  141.0948  158.1868 C.ar    1  UNL1       -0.0011
      8 C         143.2985  140.1581  157.4586 C.ar    1  UNL1        0.0022
      9 C         143.5823  139.7875  156.0331 C.ar    1  UNL1       -0.0030
     10 C         144.7836  140.3538  155.3358 C.ar    1  UNL1        0.0155
     11 C         142.5064  138.8477  155.5754 C.3     1  UNL1        0.1207
     12 N         141.5578  138.6374  156.7182 N.am    1  UNL1       -0.2634
     13 C         140.3343  137.7697  156.7002 C.2     1  UNL1        0.2563
     14 O         139.4770  137.6567  157.9258 O.2     1  UNL1       -0.2721
     15 C         142.0473  139.4473  157.8820 C.3     1  UNL1        0.1751
     16 C         148.1039  142.4230  154.6696 C.3     1  UNL1        0.1816
     17 S         146.9026  141.8567  155.3669 S.O2    1  UNL1        0.0104
     18 O         146.4316  141.2623  154.0727 O.2     1  UNL1       -0.1686
     19 O         147.3735  142.4512  156.6610 O.2     1  UNL1       -0.1686
     20 C         139.9684  137.0149  155.4567 C.3     1  UNL1        0.2232
     21 O         140.2867  135.5533  155.3455 O.3     1  UNL1       -0.3737
     22 H         141.2490  135.4321  155.3316 H       1  UNL1        0.2110
     23 C         140.5949  138.3798  161.4177 C.ar    1  UNL1        0.0503
     24 C         139.1342  138.7018  161.5299 C.ar    1  UNL1        0.0144
     25 C         138.4863  138.7861  162.8801 C.ar    1  UNL1       -0.0002
     26 C         139.2991  138.5483  164.1181 C.ar    1  UNL1        0.0182
     27 C         140.7598  138.2263  164.0059 C.ar    1  UNL1       -0.0002
     28 C         141.4077  138.1420  162.6557 C.ar    1  UNL1        0.0144
     29 C         138.6512  138.6326  165.4684 C.3     1  UNL1        0.2827
     30 O         138.7757  137.1456  165.6209 O.3     1  UNL1       -0.3692
     31 H         139.1975  136.7737  164.8306 H       1  UNL1        0.2112
     32 C         138.0033  138.7169  166.8186 C.3     1  UNL1        0.4311
     33 F         137.3554  138.8012  168.1688 F       1  UNL1       -0.1669
     34 F         139.2501  139.3352  167.3782 F       1  UNL1       -0.1669
     35 F         137.2259  138.3605  166.5878 F       1  UNL1       -0.1669
     36 C         138.5267  140.1196  165.3158 C.3     1  UNL1        0.4311
     37 F         138.4022  141.6066  165.1632 F       1  UNL1       -0.1669
     38 F         137.6417  140.1528  165.2998 F       1  UNL1       -0.1669
     39 F         139.9468  140.6017  165.2872 F       1  UNL1       -0.1669
@<TRIPOS>BOND
     1    16    17    1
     2    17    18    2
     3    17    19    2
     4    17     5    1
     5     5     6   ar
     6     6     7   ar
     7     7     8   ar
     8     8     9   ar
     9     9    10   ar
    10     9    11    1
    11    11    12    1
    12    12    13   am
    13    13    14    2
    14    13    20    1
    15    20    21    1
    16    12    15    1
    17    15     1    1
    18     1     2    2
    19     1     3   am
    20     3    23    1
    21    23    24   ar
    22    24    25   ar
    23    25    26   ar
    24    26    29    1
    25    29    30    1
    26    29    32    1
    27    32    33    1
    28    32    34    1
    29    32    35    1
    30    29    36    1
    31    36    37    1
    32    36    38    1
    33    36    39    1
    34    26    27   ar
    35    27    28   ar
    36    10     5   ar
    37    28    23   ar
    38    15     8    1
    39    21    22    1
    40     3     4    1
    41    30    31    1
@<TRIPOS>MOLECULE
*****
 39 41 0 0 0
SMALL
GASTEIGER

@<TRIPOS>ATOM
      1 C         140.6396  139.1256  161.8374 C.2     1  UNL1        0.2485
      2 O         140.2278  137.6834  161.8536 O.2     1  UNL1       -0.2726
      3 N         141.2704  139.7116  160.6090 N.am    1  UNL1       -0.2823
      4 H         141.5407  140.6582  160.5983 H       1  UNL1        0.1549
      5 C         142.0358  139.9327  167.2258 C.ar    1  UNL1        0.1054
      6 C         142.5415  138.8558  166.3124 C.ar    1  UNL1        0.0181
      7 C         142.0595  138.7882  164.8936 C.ar    1  UNL1       -0.0011
      8 C         141.0717  139.7975  164.3882 C.ar    1  UNL1        0.0022
      9 C         140.5659  140.8744  165.3016 C.ar    1  UNL1       -0.0030
     10 C         141.0480  140.9420  166.7205 C.ar    1  UNL1        0.0155
     11 C         139.6025  141.7244  164.5273 C.3     1  UNL1        0.1207
     12 N         139.5129  141.1727  163.1354 N.am    1  UNL1       -0.2634
     13 C         138.6642  141.7165  162.0244 C.2     1  UNL1        0.2563
     14 O         138.6779  141.0556  160.6779 O.2     1  UNL1       -0.2721
     15 C         140.4209  139.9818  163.0494 C.3     1  UNL1        0.1751
     16 C         142.9999  140.0679  170.0635 C.3     1  UNL1        0.1816
     17 S         142.5178  140.0003  168.6447 S.O2    1  UNL1        0.0104
     18 O         141.8666  141.3424  168.8020 O.2     1  UNL1       -0.1686
     19 O         143.1690  138.6582  168.4874 O.2     1  UNL1       -0.1686
     20 C         137.8019  142.9210  162.2600 C.3     1  UNL1        0.2232
     21 O         138.3685  144.2972  162.0728 O.3     1  UNL1       -0.3737
     22 H         139.0559  144.4571  162.7381 H       1  UNL1        0.2110
     23 C         141.4891  138.8554  159.3970 C.ar    1  UNL1        0.0503
     24 C         142.6599  137.9193  159.3414 C.ar    1  UNL1        0.0144
     25 C         142.8787  137.0631  158.1294 C.ar    1  UNL1       -0.0002
     26 C         141.9268  137.1429  156.9729 C.ar    1  UNL1        0.0182
     27 C         140.7560  138.0790  157.0285 C.ar    1  UNL1       -0.0002
     28 C         140.5372  138.9352  158.2406 C.ar    1  UNL1        0.0144
     29 C         142.1455  136.2866  155.7609 C.3     1  UNL1        0.2827
     30 O         140.7587  135.7327  155.9019 O.3     1  UNL1       -0.3692
     31 H         140.3264  136.1354  156.6713 H       1  UNL1        0.2112
     32 C         142.3643  135.4304  154.5489 C.3     1  UNL1        0.4311
     33 F         142.5831  134.5742  153.3369 F       1  UNL1       -0.1669
     34 F         142.2808  134.2001  155.4030 F       1  UNL1       -0.1669
     35 F         142.4290  136.0899  153.9611 F       1  UNL1       -0.1669
     36 C         143.5324  136.8406  155.6199 C.3     1  UNL1        0.4311
     37 F         144.9192  137.3945  155.4790 F       1  UNL1       -0.1669
     38 F         143.9668  136.1049  155.8537 F       1  UNL1       -0.1669
     39 F         143.3141  138.2585  155.1820 F       1  UNL1       -0.1669
@<TRIPOS>BOND
     1    16    17    1
     2    17    18    2
     3    17    19    2
     4    17     5    1
     5     5     6   ar
     6     6     7   ar
     7     7     8   ar
     8     8     9   ar
     9     9    10   ar
    10     9    11    1
    11    11    12    1
    12    12    13   am
    13    13    14    2
    14    13    20    1
    15    20    21    1
    16    12    15    1
    17    15     1    1
    18     1     2    2
    19     1     3   am
    20     3    23    1
    21    23    24   ar
    22    24    25   ar
    23    25    26   ar
    24    26    29    1
    25    29    30    1
    26    29    32    1
    27    32    33    1
    28    32    34    1
    29    32    35    1
    30    29    36    1
    31    36    37    1
    32    36    38    1
    33    36    39    1
    34    26    27   ar
    35    27    28   ar
    36    10     5   ar
    37    28    23   ar
    38    15     8    1
    39    21    22    1
    40     3     4    1
    41    30    31    1
@<TRIPOS>MOLECULE
*****
 39 41 0 0 0
SMALL
GASTEIGER

@<TRIPOS>ATOM
      1 C         139.7521  142.3127  162.4803 C.2     1  UNL1        0.2485
      2 O         138.5616  143.2226  162.4116 O.2     1  UNL1       -0.2726
      3 N         140.7742  142.3309  161.3826 N.am    1  UNL1       -0.2823
      4 H         141.5556  141.7337  161.4276 H       1  UNL1        0.1549
      5 C         140.3811  141.9862  168.0600 C.ar    1  UNL1        0.1054
      6 C         140.2369  143.2325  167.2379 C.ar    1  UNL1        0.0181
      7 C         140.0771  143.1349  165.7496 C.ar    1  UNL1       -0.0011
      8 C         140.0614  141.7910  165.0835 C.ar    1  UNL1        0.0022
      9 C         140.2055  140.5447  165.9057 C.ar    1  UNL1       -0.0030
     10 C         140.3654  140.6424  167.3940 C.ar    1  UNL1        0.0155
     11 C         140.1537  139.3680  164.9768 C.3     1  UNL1        0.1207
     12 N         139.9775  139.8871  163.5806 N.am    1  UNL1       -0.2634
     13 C         139.8762  139.0548  162.3367 C.2     1  UNL1        0.2563
     14 O         139.7007  139.7180  161.0028 O.2     1  UNL1       -0.2721
     15 C         139.9205  141.3846  163.6465 C.3     1  UNL1        0.1751
     16 C         140.7007  142.1815  171.0366 C.3     1  UNL1        0.1816
     17 S         140.5409  142.0838  169.5483 S.O2    1  UNL1        0.0104
     18 O         141.0533  140.6746  169.5857 O.2     1  UNL1       -0.1686
     19 O         140.0285  143.4931  169.5109 O.2     1  UNL1       -0.1686
     20 C         139.9504  137.5594  162.4269 C.3     1  UNL1        0.2232
     21 O         141.2664  136.8880  162.6860 O.3     1  UNL1       -0.3737
     22 H         141.8583  137.0346  161.9316 H       1  UNL1        0.2110
     23 C         140.6058  143.2590  160.2163 C.ar    1  UNL1        0.0503
     24 C         139.7181  142.8710  159.0711 C.ar    1  UNL1        0.0144
     25 C         139.5497  143.7992  157.9048 C.ar    1  UNL1       -0.0002
     26 C         140.2690  145.1152  157.8836 C.ar    1  UNL1        0.0182
     27 C         141.1567  145.5032  159.0288 C.ar    1  UNL1       -0.0002
     28 C         141.3251  144.5751  160.1951 C.ar    1  UNL1        0.0144
     29 C         140.1006  146.0434  156.7173 C.3     1  UNL1        0.2827
     30 O         139.5474  147.0943  157.6335 O.3     1  UNL1       -0.3692
     31 H         139.5308  146.7550  158.5421 H       1  UNL1        0.2112
     32 C         139.9322  146.9715  155.5511 C.3     1  UNL1        0.4311
     33 F         139.7638  147.8996  154.3848 F       1  UNL1       -0.1669
     34 F         138.4507  146.9962  155.7847 F       1  UNL1       -0.1669
     35 F         140.7884  147.0237  155.3302 F       1  UNL1       -0.1669
     36 C         140.6538  144.9924  155.8011 C.3     1  UNL1        0.4311
     37 F         141.2071  143.9415  154.8849 F       1  UNL1       -0.1669
     38 F         141.4836  145.0052  156.1107 F       1  UNL1       -0.1669
     39 F         139.4799  144.5917  154.9577 F       1  UNL1       -0.1669
@<TRIPOS>BOND
     1    16    17    1
     2    17    18    2
     3    17    19    2
     4    17     5    1
     5     5     6   ar
     6     6     7   ar
     7     7     8   ar
     8     8     9   ar
     9     9    10   ar
    10     9    11    1
    11    11    12    1
    12    12    13   am
    13    13    14    2
    14    13    20    1
    15    20    21    1
    16    12    15    1
    17    15     1    1
    18     1     2    2
    19     1     3   am
    20     3    23    1
    21    23    24   ar
    22    24    25   ar
    23    25    26   ar
    24    26    29    1
    25    29    30    1
    26    29    32    1
    27    32    33    1
    28    32    34    1
    29    32    35    1
    30    29    36    1
    31    36    37    1
    32    36    38    1
    33    36    39    1
    34    26    27   ar
    35    27    28   ar
    36    10     5   ar
    37    28    23   ar
    38    15     8    1
    39    21    22    1
    40     3     4    1
    41    30    31    1
@<TRIPOS>MOLECULE
*****
 39 41 0 0 0
SMALL
GASTEIGER

@<TRIPOS>ATOM
      1 C         142.4256  141.7304  161.8362 C.2     1  UNL1        0.2485
      2 O         143.7574  142.0696  162.4372 O.2     1  UNL1       -0.2726
      3 N         141.2366  141.5102  162.7237 N.am    1  UNL1       -0.2823
      4 H         140.3625  141.2875  162.3293 H       1  UNL1        0.1549
      5 C         142.5564  138.2002  157.4593 C.ar    1  UNL1        0.1054
      6 C         142.7742  137.8582  158.9034 C.ar    1  UNL1        0.0181
      7 C         142.7028  138.9327  159.9477 C.ar    1  UNL1       -0.0011
      8 C         142.4136  140.3492  159.5478 C.ar    1  UNL1        0.0022
      9 C         142.1958  140.6912  158.1036 C.ar    1  UNL1       -0.0030
     10 C         142.2673  139.6167  157.0594 C.ar    1  UNL1        0.0155
     11 C         141.9305  142.1647  158.0111 C.3     1  UNL1        0.1207
     12 N         141.9843  142.7333  159.3981 N.am    1  UNL1       -0.2634
     13 C         141.7761  144.1715  159.7701 C.2     1  UNL1        0.2563
     14 O         141.8606  144.5943  161.2067 O.2     1  UNL1       -0.2721
     15 C         142.2829  141.6112  160.3478 C.3     1  UNL1        0.1751
     16 C         142.6993  136.0513  155.3708 C.3     1  UNL1        0.1816
     17 S         142.6278  137.1258  156.4151 S.O2    1  UNL1        0.0104
     18 O         141.1855  136.7934  156.6584 O.2     1  UNL1       -0.1686
     19 O         144.0702  137.4581  156.1717 O.2     1  UNL1       -0.1686
     20 C         141.4835  145.1868  158.7054 C.3     1  UNL1        0.2232
     21 O         142.6059  145.7836  157.9093 O.3     1  UNL1       -0.3737
     22 H         143.1678  146.3174  158.4926 H       1  UNL1        0.2110
     23 C         141.3793  141.6293  164.2121 C.ar    1  UNL1        0.0503
     24 C         142.2212  140.6430  164.9662 C.ar    1  UNL1        0.0144
     25 C         142.3640  140.7622  166.4546 C.ar    1  UNL1       -0.0002
     26 C         141.6649  141.8675  167.1890 C.ar    1  UNL1        0.0182
     27 C         140.8230  142.8538  166.4350 C.ar    1  UNL1       -0.0002
     28 C         140.6803  142.7346  164.9466 C.ar    1  UNL1        0.0144
     29 C         141.8077  141.9866  168.6775 C.3     1  UNL1        0.2827
     30 O         143.1451  142.6412  168.4968 O.3     1  UNL1       -0.3692
     31 H         143.3464  142.7097  167.5504 H       1  UNL1        0.2112
     32 C         141.9504  142.1057  170.1659 C.3     1  UNL1        0.4311
     33 F         142.0932  142.2249  171.6543 F       1  UNL1       -0.1669
     34 F         141.8320  143.5971  170.0579 F       1  UNL1       -0.1669
     35 F         142.0301  141.2402  170.3363 F       1  UNL1       -0.1669
     36 C         140.4702  141.3320  168.8581 C.3     1  UNL1        0.4311
     37 F         139.1328  140.6774  169.0388 F       1  UNL1       -0.1669
     38 F         139.9990  142.0752  168.9593 F       1  UNL1       -0.1669
     39 F         140.7672  139.8653  168.7558 F       1  UNL1       -0.1669
@<TRIPOS>BOND
     1    16    17    1
     2    17    18    2
     3    17    19    2
     4    17     5    1
     5     5     6   ar
     6     6     7   ar
     7     7     8   ar
     8     8     9   ar
     9     9    10   ar
    10     9    11    1
    11    11    12    1
    12    12    13   am
    13    13    14    2
    14    13    20    1
    15    20    21    1
    16    12    15    1
    17    15     1    1
    18     1     2    2
    19     1     3   am
    20     3    23    1
    21    23    24   ar
    22    24    25   ar
    23    25    26   ar
    24    26    29    1
    25    29    30    1
    26    29    32    1
    27    32    33    1
    28    32    34    1
    29    32    35    1
    30    29    36    1
    31    36    37    1
    32    36    38    1
    33    36    39    1
    34    26    27   ar
    35    27    28   ar
    36    10     5   ar
    37    28    23   ar
    38    15     8    1
    39    21    22    1
    40     3     4    1
    41    30    31    1
