@<TRIPOS>MOLECULE
*****
 32 35 0 0 0
SMALL
GASTEIGER

@<TRIPOS>ATOM
      1 C         140.6406  143.6148  162.5560 C.ar    1  UNL1        0.0183
      2 C         141.4077  142.9043  161.4805 C.ar    1  UNL1        0.0017
      3 C         141.5819  143.5451  160.1355 C.ar    1  UNL1        0.0046
      4 C         140.9890  144.8964  159.8660 C.ar    1  UNL1        0.0537
      5 C         140.2219  145.6068  160.9415 C.ar    1  UNL1        0.0046
      6 C         140.0477  144.9660  162.2866 C.ar    1  UNL1        0.0017
      7 C         139.3211  142.0360  164.1423 C.ar    1  UNL1        0.0858
      8 C         139.1470  141.3952  165.4873 C.ar    1  UNL1        0.0104
      9 C         140.1182  141.6925  166.5911 C.ar    1  UNL1        0.0137
     10 C         141.2636  142.6305  166.3499 C.ar    1  UNL1        0.0959
     11 N         141.4377  143.2712  165.0049 N.ar    1  UNL1       -0.2434
     12 C         140.4665  142.9740  163.9011 C.ar    1  UNL1        0.0908
     13 N         137.3786  141.4415  161.9348 N.1     1  UNL1       -0.1908
     14 C         138.3499  141.7387  163.0385 C.1     1  UNL1        0.1019
     15 C         139.9441  141.0517  167.9361 C.3     1  UNL1        0.1007
     16 N         141.0603  140.2476  168.5340 N.3     1  UNL1       -0.2688
     17 C         141.3888  139.7476  169.9096 C.3     1  UNL1        0.0738
     18 C         142.6389  139.1105  169.3795 C.3     1  UNL1        0.0347
     19 C         142.3106  139.6104  168.0040 C.3     1  UNL1        0.0738
     20 C         141.1632  145.5371  158.5210 C.2     1  UNL1        0.2495
     21 O         142.4713  146.1749  158.1579 O.2     1  UNL1       -0.2698
     22 N         140.0292  145.5400  157.5391 N.am    1  UNL1       -0.2794
     23 H         139.1706  145.1214  157.7774 H       1  UNL1        0.1552
     24 C         140.2034  146.1807  156.1941 C.ar    1  UNL1        0.0636
     25 C         141.0235  145.4992  155.1392 C.ar    1  UNL1        0.0159
     26 C         141.1977  146.1400  153.7941 C.ar    1  UNL1        0.0014
     27 C         140.5517  147.4623  153.5040 C.ar    1  UNL1        0.0013
     28 C         139.7316  148.1439  154.5589 C.ar    1  UNL1        0.0153
     29 C         139.5574  147.5031  155.9039 C.ar    1  UNL1        0.0552
     30 N         138.7373  148.1847  156.9588 N.pl3   1  UNL1       -0.3560
     31 H         138.3133  149.0526  156.7684 H       1  UNL1        0.1424
     32 H         138.6229  147.7641  157.8416 H       1  UNL1        0.1424
@<TRIPOS>BOND
     1    13    14    3
     2    14     7    1
     3     7     8   ar
     4     8     9   ar
     5     9    15    1
     6    15    16    1
     7    16    17    1
     8    17    18    1
     9    18    19    1
    10     9    10   ar
    11    10    11   ar
    12    11    12   ar
    13    12     1    1
    14     1     2   ar
    15     2     3   ar
    16     3     4   ar
    17     4    20    1
    18    20    21    2
    19    20    22   am
    20    22    24    1
    21    24    25   ar
    22    25    26   ar
    23    26    27   ar
    24    27    28   ar
    25    28    29   ar
    26    29    30    1
    27     4     5   ar
    28     5     6   ar
    29    12     7   ar
    30     6     1   ar
    31    19    16    1
    32    29    24   ar
    33    22    23    1
    34    30    31    1
    35    30    32    1
@<TRIPOS>MOLECULE
*****
 32 35 0 0 0
SMALL
GASTEIGER

@<TRIPOS>ATOM
      1 C         140.9660  143.6244  162.3474 C.ar    1  UNL1        0.0183
      2 C         140.3396  144.9685  162.1214 C.ar    1  UNL1        0.0017
      3 C         140.4431  145.6278  160.7781 C.ar    1  UNL1        0.0046
      4 C         141.1730  144.9431  159.6607 C.ar    1  UNL1        0.0537
      5 C         141.7994  143.5990  159.8867 C.ar    1  UNL1        0.0046
      6 C         141.6959  142.9397  161.2301 C.ar    1  UNL1        0.0017
      7 C         139.6597  142.1348  164.0281 C.ar    1  UNL1        0.0858
      8 C         139.5562  141.4755  165.3714 C.ar    1  UNL1        0.0104
      9 C         140.6556  141.6465  166.3775 C.ar    1  UNL1        0.0137
     10 C         141.8584  142.4768  166.0402 C.ar    1  UNL1        0.0959
     11 N         141.9619  143.1361  164.6969 N.ar    1  UNL1       -0.2434
     12 C         140.8625  142.9651  163.6908 C.ar    1  UNL1        0.0908
     13 N         137.4610  141.7927  162.0159 N.1     1  UNL1       -0.1908
     14 C         138.5604  141.9638  163.0220 C.1     1  UNL1        0.1019
     15 C         140.5521  140.9872  167.7209 C.3     1  UNL1        0.1007
     16 N         140.2381  141.8075  168.9367 N.3     1  UNL1       -0.2688
     17 C         139.6348  141.5243  170.2806 C.3     1  UNL1        0.0738
     18 C         139.7940  142.9677  170.6563 C.3     1  UNL1        0.0347
     19 C         140.3972  143.2510  169.3125 C.3     1  UNL1        0.0738
     20 C         141.2765  145.6024  158.3174 C.2     1  UNL1        0.2495
     21 O         142.5435  146.3001  157.9200 O.2     1  UNL1       -0.2698
     22 N         140.1130  145.5642  157.3715 N.am    1  UNL1       -0.2794
     23 H         139.2814  145.1063  157.6324 H       1  UNL1        0.1552
     24 C         140.2164  146.2235  156.0282 C.ar    1  UNL1        0.0636
     25 C         141.0046  145.5712  154.9312 C.ar    1  UNL1        0.0159
     26 C         141.1080  146.2306  153.5879 C.ar    1  UNL1        0.0014
     27 C         140.4234  147.5423  153.3415 C.ar    1  UNL1        0.0013
     28 C         139.6353  148.1946  154.4385 C.ar    1  UNL1        0.0153
     29 C         139.5318  147.5353  155.7818 C.ar    1  UNL1        0.0552
     30 N         138.7437  148.1876  156.8788 N.pl3   1  UNL1       -0.3560
     31 H         138.2943  149.0485  156.7171 H       1  UNL1        0.1424
     32 H         138.6757  147.7548  157.7605 H       1  UNL1        0.1424
@<TRIPOS>BOND
     1    13    14    3
     2    14     7    1
     3     7     8   ar
     4     8     9   ar
     5     9    15    1
     6    15    16    1
     7    16    17    1
     8    17    18    1
     9    18    19    1
    10     9    10   ar
    11    10    11   ar
    12    11    12   ar
    13    12     1    1
    14     1     2   ar
    15     2     3   ar
    16     3     4   ar
    17     4    20    1
    18    20    21    2
    19    20    22   am
    20    22    24    1
    21    24    25   ar
    22    25    26   ar
    23    26    27   ar
    24    27    28   ar
    25    28    29   ar
    26    29    30    1
    27     4     5   ar
    28     5     6   ar
    29    12     7   ar
    30     6     1   ar
    31    19    16    1
    32    29    24   ar
    33    22    23    1
    34    30    31    1
    35    30    32    1
@<TRIPOS>MOLECULE
*****
 32 35 0 0 0
SMALL
GASTEIGER

@<TRIPOS>ATOM
      1 C         140.5298  143.5038  162.1881 C.ar    1  UNL1        0.0183
      2 C         141.2377  142.8000  161.0685 C.ar    1  UNL1        0.0017
      3 C         141.4313  143.4913  159.7515 C.ar    1  UNL1        0.0046
      4 C         140.9171  144.8865  159.5540 C.ar    1  UNL1        0.0537
      5 C         140.2092  145.5904  160.6736 C.ar    1  UNL1        0.0046
      6 C         140.0155  144.8990  161.9907 C.ar    1  UNL1        0.0017
      7 C         141.3347  143.0056  164.6076 C.ar    1  UNL1        0.0858
      8 C         141.1410  142.3143  165.9245 C.ar    1  UNL1        0.0104
      9 C         139.9487  141.4297  166.1390 C.ar    1  UNL1        0.0137
     10 C         138.9502  141.2364  165.0366 C.ar    1  UNL1        0.0959
     11 N         139.1438  141.9278  163.7196 N.ar    1  UNL1       -0.2434
     12 C         140.3361  142.8124  163.5051 C.ar    1  UNL1        0.0908
     13 N         143.7192  144.7748  164.1786 N.1     1  UNL1       -0.1908
     14 C         142.5269  143.8902  164.3931 C.1     1  UNL1        0.1019
     15 C         139.7551  140.7383  167.4561 C.3     1  UNL1        0.1007
     16 N         140.9344  140.1584  168.1793 N.3     1  UNL1       -0.2688
     17 C         141.2962  139.9468  169.6196 C.3     1  UNL1        0.0738
     18 C         142.6022  139.3384  169.2020 C.3     1  UNL1        0.0347
     19 C         142.2403  139.5500  167.7618 C.3     1  UNL1        0.0738
     20 C         141.1108  145.5778  158.2370 C.2     1  UNL1        0.2495
     21 O         142.4285  146.2165  157.9119 O.2     1  UNL1       -0.2698
     22 N         139.9867  145.6305  157.2452 N.am    1  UNL1       -0.2794
     23 H         139.1219  145.2113  157.4586 H       1  UNL1        0.1552
     24 C         140.1804  146.3218  155.9282 C.ar    1  UNL1        0.0636
     25 C         141.0091  145.6767  154.8572 C.ar    1  UNL1        0.0159
     26 C         141.2027  146.3681  153.5401 C.ar    1  UNL1        0.0014
     27 C         140.5677  147.7045  153.2941 C.ar    1  UNL1        0.0013
     28 C         139.7390  148.3497  154.3651 C.ar    1  UNL1        0.0153
     29 C         139.5454  147.6584  155.6821 C.ar    1  UNL1        0.0552
     30 N         138.7167  148.3035  156.7531 N.pl3   1  UNL1       -0.3560
     31 H         138.2999  149.1807  156.5917 H       1  UNL1        0.1424
     32 H         138.5896  147.8498  157.6175 H       1  UNL1        0.1424
@<TRIPOS>BOND
     1    13    14    3
     2    14     7    1
     3     7     8   ar
     4     8     9   ar
     5     9    15    1
     6    15    16    1
     7    16    17    1
     8    17    18    1
     9    18    19    1
    10     9    10   ar
    11    10    11   ar
    12    11    12   ar
    13    12     1    1
    14     1     2   ar
    15     2     3   ar
    16     3     4   ar
    17     4    20    1
    18    20    21    2
    19    20    22   am
    20    22    24    1
    21    24    25   ar
    22    25    26   ar
    23    26    27   ar
    24    27    28   ar
    25    28    29   ar
    26    29    30    1
    27     4     5   ar
    28     5     6   ar
    29    12     7   ar
    30     6     1   ar
    31    19    16    1
    32    29    24   ar
    33    22    23    1
    34    30    31    1
    35    30    32    1
@<TRIPOS>MOLECULE
*****
 32 35 0 0 0
SMALL
GASTEIGER

@<TRIPOS>ATOM
      1 C         142.8464  140.2748  162.8058 C.ar    1  UNL1        0.0183
      2 C         141.6376  140.5262  161.9539 C.ar    1  UNL1        0.0017
      3 C         141.5857  139.9978  160.5511 C.ar    1  UNL1        0.0046
      4 C         142.7425  139.2178  160.0001 C.ar    1  UNL1        0.0537
      5 C         143.9513  138.9664  160.8520 C.ar    1  UNL1        0.0046
      6 C         144.0032  139.4949  162.2549 C.ar    1  UNL1        0.0017
      7 C         143.4303  142.1808  164.4720 C.ar    1  UNL1        0.0858
      8 C         143.4822  142.7093  165.8749 C.ar    1  UNL1        0.0104
      9 C         143.0020  141.8602  167.0144 C.ar    1  UNL1        0.0137
     10 C         142.4700  140.4827  166.7511 C.ar    1  UNL1        0.0959
     11 N         142.4181  139.9543  165.3483 N.ar    1  UNL1       -0.2434
     12 C         142.8983  140.8033  164.2087 C.ar    1  UNL1        0.0908
     13 N         144.3906  143.8789  162.1930 N.1     1  UNL1       -0.1908
     14 C         143.9105  143.0299  163.3325 C.1     1  UNL1        0.1019
     15 C         143.0539  142.3887  168.4173 C.3     1  UNL1        0.1007
     16 N         141.7931  142.5071  169.2213 N.3     1  UNL1       -0.2688
     17 C         141.2886  141.9025  170.4980 C.3     1  UNL1        0.0738
     18 C         140.0101  142.6745  170.3583 C.3     1  UNL1        0.0347
     19 C         140.5146  143.2790  169.0816 C.3     1  UNL1        0.0738
     20 C         142.6906  138.6894  158.5973 C.2     1  UNL1        0.2495
     21 O         142.8976  139.6182  157.4378 O.2     1  UNL1       -0.2698
     22 N         142.4316  137.2321  158.3539 N.am    1  UNL1       -0.2794
     23 H         142.2958  136.6224  159.1149 H       1  UNL1        0.1552
     24 C         142.3797  136.7036  156.9511 C.ar    1  UNL1        0.0636
     25 C         143.6269  136.1862  156.2978 C.ar    1  UNL1        0.0159
     26 C         143.5749  135.6577  154.8949 C.ar    1  UNL1        0.0014
     27 C         142.2758  135.6467  154.1453 C.ar    1  UNL1        0.0013
     28 C         141.0285  136.1640  154.7986 C.ar    1  UNL1        0.0153
     29 C         141.0805  136.6925  156.2014 C.ar    1  UNL1        0.0552
     30 N         139.8332  137.2099  156.8546 N.pl3   1  UNL1       -0.3560
     31 H         138.9805  137.2026  156.3626 H       1  UNL1        0.1424
     32 H         139.8673  137.5567  157.7754 H       1  UNL1        0.1424
@<TRIPOS>BOND
     1    13    14    3
     2    14     7    1
     3     7     8   ar
     4     8     9   ar
     5     9    15    1
     6    15    16    1
     7    16    17    1
     8    17    18    1
     9    18    19    1
    10     9    10   ar
    11    10    11   ar
    12    11    12   ar
    13    12     1    1
    14     1     2   ar
    15     2     3   ar
    16     3     4   ar
    17     4    20    1
    18    20    21    2
    19    20    22   am
    20    22    24    1
    21    24    25   ar
    22    25    26   ar
    23    26    27   ar
    24    27    28   ar
    25    28    29   ar
    26    29    30    1
    27     4     5   ar
    28     5     6   ar
    29    12     7   ar
    30     6     1   ar
    31    19    16    1
    32    29    24   ar
    33    22    23    1
    34    30    31    1
    35    30    32    1
@<TRIPOS>MOLECULE
*****
 32 35 0 0 0
SMALL
GASTEIGER

@<TRIPOS>ATOM
      1 C         142.9775  140.1132  162.8012 C.ar    1  UNL1        0.0183
      2 C         144.0906  139.2223  162.3348 C.ar    1  UNL1        0.0017
      3 C         144.0794  138.6770  160.9375 C.ar    1  UNL1        0.0046
      4 C         142.9552  139.0226  160.0065 C.ar    1  UNL1        0.0537
      5 C         141.8421  139.9135  160.4729 C.ar    1  UNL1        0.0046
      6 C         141.8533  140.4588  161.8703 C.ar    1  UNL1        0.0017
      7 C         142.3590  139.8772  165.3135 C.ar    1  UNL1        0.0858
      8 C         142.3703  140.4225  166.7108 C.ar    1  UNL1        0.0104
      9 C         143.0112  141.7489  166.9932 C.ar    1  UNL1        0.0137
     10 C         143.6409  142.5301  165.8782 C.ar    1  UNL1        0.0959
     11 N         143.6297  141.9849  164.4809 N.ar    1  UNL1       -0.2434
     12 C         142.9887  140.6584  164.1986 C.ar    1  UNL1        0.0908
     13 N         141.0772  137.2243  164.7488 N.1     1  UNL1       -0.1908
     14 C         141.7181  138.5508  165.0312 C.1     1  UNL1        0.1019
     15 C         143.0224  142.2942  168.3906 C.3     1  UNL1        0.1007
     16 N         141.7425  142.3963  169.1661 N.3     1  UNL1       -0.2688
     17 C         140.4452  143.1263  168.9807 C.3     1  UNL1        0.0738
     18 C         139.9324  142.5406  170.2628 C.3     1  UNL1        0.0347
     19 C         141.2295  141.8106  170.4482 C.3     1  UNL1        0.0738
     20 C         142.9440  138.4774  158.6092 C.2     1  UNL1        0.2495
     21 O         143.5415  139.2750  157.4881 O.2     1  UNL1       -0.2698
     22 N         142.3354  137.1345  158.3329 N.am    1  UNL1       -0.2794
     23 H         141.9432  136.6111  159.0687 H       1  UNL1        0.1552
     24 C         142.3242  136.5893  156.9356 C.ar    1  UNL1        0.0636
     25 C         143.5810  136.0278  156.3395 C.ar    1  UNL1        0.0159
     26 C         143.5698  135.4825  154.9421 C.ar    1  UNL1        0.0014
     27 C         142.3019  135.4988  154.1409 C.ar    1  UNL1        0.0013
     28 C         141.0451  136.0603  154.7369 C.ar    1  UNL1        0.0153
     29 C         141.0563  136.6055  156.1342 C.ar    1  UNL1        0.0552
     30 N         139.7995  137.1670  156.7303 N.pl3   1  UNL1       -0.3560
     31 H         138.9673  137.1777  156.2044 H       1  UNL1        0.1424
     32 H         139.8068  137.5249  157.6474 H       1  UNL1        0.1424
@<TRIPOS>BOND
     1    13    14    3
     2    14     7    1
     3     7     8   ar
     4     8     9   ar
     5     9    15    1
     6    15    16    1
     7    16    17    1
     8    17    18    1
     9    18    19    1
    10     9    10   ar
    11    10    11   ar
    12    11    12   ar
    13    12     1    1
    14     1     2   ar
    15     2     3   ar
    16     3     4   ar
    17     4    20    1
    18    20    21    2
    19    20    22   am
    20    22    24    1
    21    24    25   ar
    22    25    26   ar
    23    26    27   ar
    24    27    28   ar
    25    28    29   ar
    26    29    30    1
    27     4     5   ar
    28     5     6   ar
    29    12     7   ar
    30     6     1   ar
    31    19    16    1
    32    29    24   ar
    33    22    23    1
    34    30    31    1
    35    30    32    1
@<TRIPOS>MOLECULE
*****
 32 35 0 0 0
SMALL
GASTEIGER

@<TRIPOS>ATOM
      1 C         140.9632  143.5998  161.8667 C.ar    1  UNL1        0.0183
      2 C         140.0204  144.0879  162.9264 C.ar    1  UNL1        0.0017
      3 C         140.2088  143.6614  164.3520 C.ar    1  UNL1        0.0046
      4 C         141.3400  142.7468  164.7181 C.ar    1  UNL1        0.0537
      5 C         142.2828  142.2587  163.6584 C.ar    1  UNL1        0.0046
      6 C         142.0943  142.6852  162.2326 C.ar    1  UNL1        0.0017
      7 C         139.7776  143.3188  159.5720 C.ar    1  UNL1        0.0858
      8 C         139.5892  143.7453  158.1464 C.ar    1  UNL1        0.0104
      9 C         140.3979  144.8794  157.5897 C.ar    1  UNL1        0.0137
     10 C         141.3950  145.5869  158.4586 C.ar    1  UNL1        0.0959
     11 N         141.5834  145.1604  159.8843 N.ar    1  UNL1       -0.2434
     12 C         140.7747  144.0263  160.4409 C.ar    1  UNL1        0.0908
     13 N         138.1602  141.0507  160.6854 N.1     1  UNL1       -0.1908
     14 C         138.9689  142.1847  160.1287 C.1     1  UNL1        0.1019
     15 C         140.2094  145.3059  156.1639 C.3     1  UNL1        0.1007
     16 N         139.6859  146.6771  155.8543 N.3     1  UNL1       -0.2688
     17 C         138.9475  147.7299  156.6265 C.3     1  UNL1        0.0738
     18 C         138.9456  148.6161  155.4163 C.3     1  UNL1        0.0347
     19 C         139.6839  147.5634  154.6441 C.3     1  UNL1        0.0738
     20 C         141.5284  142.3203  166.1437 C.2     1  UNL1        0.2495
     21 O         142.9098  142.2148  166.7187 O.2     1  UNL1       -0.2698
     22 N         140.3355  141.9993  166.9945 N.am    1  UNL1       -0.2794
     23 H         139.4288  142.0685  166.6171 H       1  UNL1        0.1552
     24 C         140.5239  141.5728  168.4201 C.ar    1  UNL1        0.0636
     25 C         140.8213  140.1380  168.7407 C.ar    1  UNL1        0.0159
     26 C         141.0097  139.7115  170.1665 C.ar    1  UNL1        0.0014
     27 C         140.9007  140.7199  171.2716 C.ar    1  UNL1        0.0013
     28 C         140.6032  142.1547  170.9510 C.ar    1  UNL1        0.0153
     29 C         140.4148  142.5812  169.5253 C.ar    1  UNL1        0.0552
     30 N         140.1174  144.0160  169.2048 N.pl3   1  UNL1       -0.3560
     31 H         140.0458  144.6778  169.9301 H       1  UNL1        0.1424
     32 H         139.9937  144.2959  168.2690 H       1  UNL1        0.1424
@<TRIPOS>BOND
     1    13    14    3
     2    14     7    1
     3     7     8   ar
     4     8     9   ar
     5     9    15    1
     6    15    16    1
     7    16    17    1
     8    17    18    1
     9    18    19    1
    10     9    10   ar
    11    10    11   ar
    12    11    12   ar
    13    12     1    1
    14     1     2   ar
    15     2     3   ar
    16     3     4   ar
    17     4    20    1
    18    20    21    2
    19    20    22   am
    20    22    24    1
    21    24    25   ar
    22    25    26   ar
    23    26    27   ar
    24    27    28   ar
    25    28    29   ar
    26    29    30    1
    27     4     5   ar
    28     5     6   ar
    29    12     7   ar
    30     6     1   ar
    31    19    16    1
    32    29    24   ar
    33    22    23    1
    34    30    31    1
    35    30    32    1
@<TRIPOS>MOLECULE
*****
 32 35 0 0 0
SMALL
GASTEIGER

@<TRIPOS>ATOM
      1 C         140.1873  139.3133  162.4290 C.ar    1  UNL1        0.0183
      2 C         139.3207  138.2471  161.8270 C.ar    1  UNL1        0.0017
      3 C         139.3362  138.0162  160.3450 C.ar    1  UNL1        0.0046
      4 C         140.2183  138.8514  159.4650 C.ar    1  UNL1        0.0537
      5 C         141.0848  139.9176  160.0670 C.ar    1  UNL1        0.0046
      6 C         141.0693  140.1485  161.5491 C.ar    1  UNL1        0.0017
      7 C         139.0984  140.3920  164.5269 C.ar    1  UNL1        0.0858
      8 C         139.0829  140.6228  166.0089 C.ar    1  UNL1        0.0104
      9 C         140.1408  140.0060  166.8752 C.ar    1  UNL1        0.0137
     10 C         141.2141  139.1582  166.2594 C.ar    1  UNL1        0.0959
     11 N         141.2296  138.9273  164.7774 N.ar    1  UNL1       -0.2434
     12 C         140.1717  139.5442  163.9111 C.ar    1  UNL1        0.0908
     13 N         136.9827  141.6257  162.7944 N.1     1  UNL1       -0.1908
     14 C         138.0405  141.0088  163.6606 C.1     1  UNL1        0.1019
     15 C         140.1252  140.2369  168.3573 C.3     1  UNL1        0.1007
     16 N         140.2359  141.6307  168.9003 N.3     1  UNL1       -0.2688
     17 C         140.6967  142.9490  168.3526 C.3     1  UNL1        0.0738
     18 C         140.3923  143.6019  169.6683 C.3     1  UNL1        0.0347
     19 C         139.9316  142.2838  170.2159 C.3     1  UNL1        0.0738
     20 C         140.2338  138.6205  157.9830 C.2     1  UNL1        0.2495
     21 O         141.0097  139.5413  157.0885 O.2     1  UNL1       -0.2698
     22 N         139.4733  137.4687  157.3954 N.am    1  UNL1       -0.2794
     23 H         138.9641  136.8644  157.9824 H       1  UNL1        0.1552
     24 C         139.4888  137.2378  155.9134 C.ar    1  UNL1        0.0636
     25 C         138.4829  137.9232  155.0369 C.ar    1  UNL1        0.0159
     26 C         138.4984  137.6923  153.5549 C.ar    1  UNL1        0.0014
     27 C         139.5199  136.7759  152.9493 C.ar    1  UNL1        0.0013
     28 C         140.5258  136.0904  153.8257 C.ar    1  UNL1        0.0153
     29 C         140.5103  136.3213  155.3077 C.ar    1  UNL1        0.0552
     30 N         141.5163  135.6359  156.1842 N.pl3   1  UNL1       -0.3560
     31 H         142.1868  135.0344  155.7867 H       1  UNL1        0.1424
     32 H         141.5061  135.7875  157.1569 H       1  UNL1        0.1424
@<TRIPOS>BOND
     1    13    14    3
     2    14     7    1
     3     7     8   ar
     4     8     9   ar
     5     9    15    1
     6    15    16    1
     7    16    17    1
     8    17    18    1
     9    18    19    1
    10     9    10   ar
    11    10    11   ar
    12    11    12   ar
    13    12     1    1
    14     1     2   ar
    15     2     3   ar
    16     3     4   ar
    17     4    20    1
    18    20    21    2
    19    20    22   am
    20    22    24    1
    21    24    25   ar
    22    25    26   ar
    23    26    27   ar
    24    27    28   ar
    25    28    29   ar
    26    29    30    1
    27     4     5   ar
    28     5     6   ar
    29    12     7   ar
    30     6     1   ar
    31    19    16    1
    32    29    24   ar
    33    22    23    1
    34    30    31    1
    35    30    32    1
@<TRIPOS>MOLECULE
*****
 32 35 0 0 0
SMALL
GASTEIGER

@<TRIPOS>ATOM
      1 C         141.6503  138.7048  161.7808 C.ar    1  UNL1        0.0183
      2 C         141.9796  140.1064  162.2015 C.ar    1  UNL1        0.0017
      3 C         142.1334  140.4362  163.6567 C.ar    1  UNL1        0.0046
      4 C         141.9578  139.3643  164.6913 C.ar    1  UNL1        0.0537
      5 C         141.6285  137.9626  164.2706 C.ar    1  UNL1        0.0046
      6 C         141.4748  137.6329  162.8153 C.ar    1  UNL1        0.0017
      7 C         140.1384  138.4029  159.6897 C.ar    1  UNL1        0.0858
      8 C         139.9847  138.0732  158.2345 C.ar    1  UNL1        0.0104
      9 C         141.1893  137.7156  157.4152 C.ar    1  UNL1        0.0137
     10 C         142.5475  137.6878  158.0511 C.ar    1  UNL1        0.0959
     11 N         142.7012  138.0175  159.5063 N.ar    1  UNL1       -0.2434
     12 C         141.4966  138.3751  160.3256 C.ar    1  UNL1        0.0908
     13 N         137.7293  139.1181  161.3282 N.1     1  UNL1       -0.1908
     14 C         138.9339  138.7605  160.5089 C.1     1  UNL1        0.1019
     15 C         141.0355  137.3859  155.9599 C.3     1  UNL1        0.1007
     16 N         141.7006  136.1668  155.3928 N.3     1  UNL1       -0.2688
     17 C         141.3693  134.7047  155.3417 C.3     1  UNL1        0.0738
     18 C         142.6411  134.4429  154.5908 C.3     1  UNL1        0.0347
     19 C         142.9724  135.9048  154.6419 C.3     1  UNL1        0.0738
     20 C         142.1115  139.6940  166.1464 C.2     1  UNL1        0.2495
     21 O         142.9827  138.8415  167.0206 O.2     1  UNL1       -0.2698
     22 N         141.3941  140.8763  166.7274 N.am    1  UNL1       -0.2794
     23 H         140.8223  141.4358  166.1536 H       1  UNL1        0.1552
     24 C         141.5478  141.2060  168.1826 C.ar    1  UNL1        0.0636
     25 C         142.7107  142.0328  168.6455 C.ar    1  UNL1        0.0159
     26 C         142.8644  142.3626  170.1008 C.ar    1  UNL1        0.0014
     27 C         141.8553  141.8655  171.0930 C.ar    1  UNL1        0.0013
     28 C         140.6925  141.0388  170.6301 C.ar    1  UNL1        0.0153
     29 C         140.5387  140.7090  169.1750 C.ar    1  UNL1        0.0552
     30 N         139.3759  139.8822  168.7121 N.pl3   1  UNL1       -0.3560
     31 H         138.7136  139.5560  169.3633 H       1  UNL1        0.1424
     32 H         139.2750  139.6658  167.7570 H       1  UNL1        0.1424
@<TRIPOS>BOND
     1    13    14    3
     2    14     7    1
     3     7     8   ar
     4     8     9   ar
     5     9    15    1
     6    15    16    1
     7    16    17    1
     8    17    18    1
     9    18    19    1
    10     9    10   ar
    11    10    11   ar
    12    11    12   ar
    13    12     1    1
    14     1     2   ar
    15     2     3   ar
    16     3     4   ar
    17     4    20    1
    18    20    21    2
    19    20    22   am
    20    22    24    1
    21    24    25   ar
    22    25    26   ar
    23    26    27   ar
    24    27    28   ar
    25    28    29   ar
    26    29    30    1
    27     4     5   ar
    28     5     6   ar
    29    12     7   ar
    30     6     1   ar
    31    19    16    1
    32    29    24   ar
    33    22    23    1
    34    30    31    1
    35    30    32    1
@<TRIPOS>MOLECULE
*****
 32 35 0 0 0
SMALL
GASTEIGER

@<TRIPOS>ATOM
      1 C         142.5410  139.2695  162.6371 C.ar    1  UNL1        0.0183
      2 C         143.4228  138.1497  162.1697 C.ar    1  UNL1        0.0017
      3 C         143.4768  137.7955  160.7131 C.ar    1  UNL1        0.0046
      4 C         142.6489  138.5612  159.7239 C.ar    1  UNL1        0.0537
      5 C         141.7671  139.6810  160.1913 C.ar    1  UNL1        0.0046
      6 C         141.7131  140.0351  161.6480 C.ar    1  UNL1        0.0017
      7 C         143.5145  140.5458  164.6800 C.ar    1  UNL1        0.0858
      8 C         143.4605  140.8999  166.1366 C.ar    1  UNL1        0.0104
      9 C         142.3790  140.3317  167.0069 C.ar    1  UNL1        0.0137
     10 C         141.3515  139.4095  166.4207 C.ar    1  UNL1        0.0959
     11 N         141.4055  139.0554  164.9641 N.ar    1  UNL1       -0.2434
     12 C         142.4870  139.6236  164.0938 C.ar    1  UNL1        0.0908
     13 N         145.6775  141.6822  162.9392 N.1     1  UNL1       -0.1908
     14 C         144.5960  141.1140  163.8096 C.1     1  UNL1        0.1019
     15 C         142.3250  140.6859  168.4636 C.3     1  UNL1        0.1007
     16 N         141.6100  141.9275  168.9076 N.3     1  UNL1       -0.2688
     17 C         140.3585  142.6390  168.4859 C.3     1  UNL1        0.0738
     18 C         140.5987  143.6833  169.5354 C.3     1  UNL1        0.0347
     19 C         141.8500  142.9719  169.9571 C.3     1  UNL1        0.0738
     20 C         142.7029  138.2070  158.2673 C.2     1  UNL1        0.2495
     21 O         143.7725  138.7910  157.3927 O.2     1  UNL1       -0.2698
     22 N         141.6874  137.2689  157.6854 N.am    1  UNL1       -0.2794
     23 H         140.9854  136.8856  158.2595 H       1  UNL1        0.1552
     24 C         141.7414  136.9148  156.2289 C.ar    1  UNL1        0.0636
     25 C         140.9557  137.7151  155.2328 C.ar    1  UNL1        0.0159
     26 C         141.0097  137.3609  153.7761 C.ar    1  UNL1        0.0014
     27 C         141.8495  136.2064  153.3157 C.ar    1  UNL1        0.0013
     28 C         142.6352  135.4061  154.3117 C.ar    1  UNL1        0.0153
     29 C         142.5812  135.7603  155.7683 C.ar    1  UNL1        0.0552
     30 N         143.3669  134.9600  156.7644 N.pl3   1  UNL1       -0.3560
     31 H         143.9180  134.2023  156.4621 H       1  UNL1        0.1424
     32 H         143.3314  135.1924  157.7204 H       1  UNL1        0.1424
@<TRIPOS>BOND
     1    13    14    3
     2    14     7    1
     3     7     8   ar
     4     8     9   ar
     5     9    15    1
     6    15    16    1
     7    16    17    1
     8    17    18    1
     9    18    19    1
    10     9    10   ar
    11    10    11   ar
    12    11    12   ar
    13    12     1    1
    14     1     2   ar
    15     2     3   ar
    16     3     4   ar
    17     4    20    1
    18    20    21    2
    19    20    22   am
    20    22    24    1
    21    24    25   ar
    22    25    26   ar
    23    26    27   ar
    24    27    28   ar
    25    28    29   ar
    26    29    30    1
    27     4     5   ar
    28     5     6   ar
    29    12     7   ar
    30     6     1   ar
    31    19    16    1
    32    29    24   ar
    33    22    23    1
    34    30    31    1
    35    30    32    1
