@<TRIPOS>MOLECULE
*****
 25 27 0 0 0
SMALL
GASTEIGER

@<TRIPOS>ATOM
      1 C         140.3076  139.3129  166.1299 C.2     1  UNL1       -0.0245
      2 C         141.5495  138.6307  165.6376 C.2     1  UNL1       -0.0421
      3 C         142.7182  139.1979  166.3876 C.3     1  UNL1        0.0480
      4 C         142.1986  140.2307  167.3433 C.ar    1  UNL1       -0.0187
      5 C         142.8896  141.1156  168.3380 C.ar    1  UNL1       -0.0082
      6 C         142.0908  142.0715  169.1734 C.ar    1  UNL1       -0.0222
      7 C         142.7818  142.9565  170.1682 C.3     1  UNL1        0.0310
      8 C         140.6010  142.1426  169.0141 C.ar    1  UNL1       -0.0043
      9 C         139.9100  141.2577  168.0194 C.ar    1  UNL1       -0.0009
     10 C         140.7088  140.3018  167.1840 C.ar    1  UNL1       -0.0079
     11 C         138.9100  139.0521  165.6519 C.3     1  UNL1        0.0666
     12 C         137.9063  138.4263  166.5746 C.3     1  UNL1        0.0112
     13 C         138.1863  140.8403  163.9117 C.ar    1  UNL1        0.2393
     14 N         137.7922  141.2051  162.5111 N.ar    1  UNL1       -0.2075
     15 C         137.7276  140.1466  161.4503 C.ar    1  UNL1        0.1227
     16 C         138.0572  138.7232  161.7900 C.ar    1  UNL1        0.1193
     17 N         138.4513  138.3584  163.1905 N.ar    1  UNL1       -0.2415
     18 C         138.5159  139.4170  164.2514 C.ar    1  UNL1        0.1156
     19 C         139.2094  143.0440  164.8320 C.3     1  UNL1        0.2543
     20 O         138.2508  141.8989  164.9724 O.3     1  UNL1       -0.4553
     21 C         141.6118  137.5678  164.5810 C.3     1  UNL1        0.0394
     22 C         141.9112  137.9404  163.1592 C.3     1  UNL1        0.0765
     23 N         142.5232  139.2736  162.8462 N.3     1  UNL1       -0.2700
     24 C         144.0128  139.4443  162.8914 C.3     1  UNL1        0.0897
     25 C         141.6456  140.4361  162.4879 C.3     1  UNL1        0.0897
@<TRIPOS>BOND
     1    19    20    1
     2    20    13    1
     3    13    14   ar
     4    14    15   ar
     5    15    16   ar
     6    16    17   ar
     7    17    18   ar
     8    18    11    1
     9    11    12    1
    10    11     1    1
    11     1     2    2
    12     2    21    1
    13    21    22    1
    14    22    23    1
    15    23    24    1
    16    23    25    1
    17     2     3    1
    18     3     4    1
    19     4     5   ar
    20     5     6   ar
    21     6     7    1
    22     6     8   ar
    23     8     9   ar
    24     9    10   ar
    25    18    13   ar
    26    10     1    1
    27    10     4   ar
@<TRIPOS>MOLECULE
*****
 25 27 0 0 0
SMALL
GASTEIGER

@<TRIPOS>ATOM
      1 C         140.3881  139.9027  166.4658 C.2     1  UNL1       -0.0245
      2 C         141.5522  139.0575  166.0410 C.2     1  UNL1       -0.0421
      3 C         142.7465  139.4749  166.8468 C.3     1  UNL1        0.0480
      4 C         142.3206  140.5781  167.7696 C.ar    1  UNL1       -0.0187
      5 C         143.0717  141.3760  168.7939 C.ar    1  UNL1       -0.0082
      6 C         142.3651  142.4383  169.5827 C.ar    1  UNL1       -0.0222
      7 C         143.1162  143.2363  170.6070 C.3     1  UNL1        0.0310
      8 C         140.9075  142.7027  169.3472 C.ar    1  UNL1       -0.0043
      9 C         140.1564  141.9048  168.3229 C.ar    1  UNL1       -0.0009
     10 C         140.8630  140.8425  167.5341 C.ar    1  UNL1       -0.0079
     11 C         138.9939  139.8223  165.9184 C.3     1  UNL1        0.0666
     12 C         138.0157  138.8440  166.4982 C.3     1  UNL1        0.0112
     13 C         138.2436  140.1355  163.4508 C.ar    1  UNL1        0.2393
     14 N         137.8274  141.0334  162.3236 N.ar    1  UNL1       -0.2075
     15 C         137.7454  142.5158  162.5367 C.ar    1  UNL1        0.1227
     16 C         138.0795  143.1006  163.8770 C.ar    1  UNL1        0.1193
     17 N         138.4957  142.2027  165.0042 N.ar    1  UNL1       -0.2415
     18 C         138.5777  140.7201  164.7912 C.ar    1  UNL1        0.1156
     19 C         138.2759  138.0912  161.8477 C.3     1  UNL1        0.2543
     20 O         138.3256  138.6530  163.2376 O.3     1  UNL1       -0.4553
     21 C         141.5265  137.9835  164.9941 C.3     1  UNL1        0.0394
     22 C         141.7338  138.3373  163.5513 C.3     1  UNL1        0.0765
     23 N         142.5533  139.5387  163.1840 N.3     1  UNL1       -0.2700
     24 C         144.0511  139.4580  163.1989 C.3     1  UNL1        0.0897
     25 C         141.8751  140.8209  162.8017 C.3     1  UNL1        0.0897
@<TRIPOS>BOND
     1    19    20    1
     2    20    13    1
     3    13    14   ar
     4    14    15   ar
     5    15    16   ar
     6    16    17   ar
     7    17    18   ar
     8    18    11    1
     9    11    12    1
    10    11     1    1
    11     1     2    2
    12     2    21    1
    13    21    22    1
    14    22    23    1
    15    23    24    1
    16    23    25    1
    17     2     3    1
    18     3     4    1
    19     4     5   ar
    20     5     6   ar
    21     6     7    1
    22     6     8   ar
    23     8     9   ar
    24     9    10   ar
    25    18    13   ar
    26    10     1    1
    27    10     4   ar
@<TRIPOS>MOLECULE
*****
 25 27 0 0 0
SMALL
GASTEIGER

@<TRIPOS>ATOM
      1 C         141.7744  139.4524  166.1041 C.2     1  UNL1       -0.0245
      2 C         140.3579  139.0730  165.7887 C.2     1  UNL1       -0.0421
      3 C         139.4511  139.9697  166.5783 C.3     1  UNL1        0.0480
      4 C         140.3072  140.9033  167.3818 C.ar    1  UNL1       -0.0187
      5 C         139.9647  142.0033  168.3424 C.ar    1  UNL1       -0.0082
      6 C         141.0582  142.7835  169.0099 C.ar    1  UNL1       -0.0222
      7 C         140.7158  143.8835  169.9705 C.3     1  UNL1        0.0310
      8 C         142.4941  142.4637  168.7168 C.ar    1  UNL1       -0.0043
      9 C         142.8366  141.3638  167.7561 C.ar    1  UNL1       -0.0009
     10 C         141.7431  140.5836  167.0886 C.ar    1  UNL1       -0.0079
     11 C         143.0061  138.8129  165.5348 C.3     1  UNL1        0.0666
     12 C         143.8976  137.9875  166.4147 C.3     1  UNL1        0.0112
     13 C         144.1784  140.1701  163.6550 C.ar    1  UNL1        0.2393
     14 N         144.5186  140.3558  162.2059 N.ar    1  UNL1       -0.2075
     15 C         144.0269  139.3702  161.1877 C.ar    1  UNL1        0.1227
     16 C         143.1949  138.1988  161.6185 C.ar    1  UNL1        0.1193
     17 N         142.8546  138.0131  163.0676 N.ar    1  UNL1       -0.2415
     18 C         143.3464  138.9987  164.0859 C.ar    1  UNL1        0.1156
     19 C         144.2829  142.6009  164.5660 C.3     1  UNL1        0.2543
     20 O         144.6701  141.1557  164.6731 O.3     1  UNL1       -0.4553
     21 C         139.9243  137.9875  164.8486 C.3     1  UNL1        0.0394
     22 C         138.9659  138.2965  163.7370 C.3     1  UNL1        0.0765
     23 N         139.4717  138.8797  162.4509 N.3     1  UNL1       -0.2700
     24 C         140.0773  140.2520  162.4366 C.3     1  UNL1        0.0897
     25 C         139.3721  138.0906  161.1792 C.3     1  UNL1        0.0897
@<TRIPOS>BOND
     1    19    20    1
     2    20    13    1
     3    13    14   ar
     4    14    15   ar
     5    15    16   ar
     6    16    17   ar
     7    17    18   ar
     8    18    11    1
     9    11    12    1
    10    11     1    1
    11     1     2    2
    12     2    21    1
    13    21    22    1
    14    22    23    1
    15    23    24    1
    16    23    25    1
    17     2     3    1
    18     3     4    1
    19     4     5   ar
    20     5     6   ar
    21     6     7    1
    22     6     8   ar
    23     8     9   ar
    24     9    10   ar
    25    18    13   ar
    26    10     1    1
    27    10     4   ar
@<TRIPOS>MOLECULE
*****
 25 27 0 0 0
SMALL
GASTEIGER

@<TRIPOS>ATOM
      1 C         139.4132  140.7682  165.9349 C.2     1  UNL1       -0.0245
      2 C         139.0781  142.1451  165.4433 C.2     1  UNL1       -0.0421
      3 C         139.9856  143.1181  166.1359 C.3     1  UNL1        0.0480
      4 C         140.8815  142.3426  167.0556 C.ar    1  UNL1       -0.0187
      5 C         141.9737  142.7712  167.9901 C.ar    1  UNL1       -0.0082
      6 C         142.7121  141.7474  168.8003 C.ar    1  UNL1       -0.0222
      7 C         143.8044  142.1760  169.7349 C.3     1  UNL1        0.0310
      8 C         142.3584  140.2950  168.6761 C.ar    1  UNL1       -0.0043
      9 C         141.2662  139.8664  167.7416 C.ar    1  UNL1       -0.0009
     10 C         140.5277  140.8902  166.9314 C.ar    1  UNL1       -0.0079
     11 C         138.7501  139.4931  165.5055 C.3     1  UNL1        0.0666
     12 C         137.9131  138.7180  166.4795 C.3     1  UNL1        0.0112
     13 C         140.0781  138.0969  163.7627 C.ar    1  UNL1        0.2393
     14 N         140.2519  137.5968  162.3593 N.ar    1  UNL1       -0.2075
     15 C         139.2717  137.9927  161.2952 C.ar    1  UNL1        0.1227
     16 C         138.1176  138.8888  161.6344 C.ar    1  UNL1        0.1193
     17 N         137.9438  139.3889  163.0379 N.ar    1  UNL1       -0.2415
     18 C         138.9240  138.9929  164.1021 C.ar    1  UNL1        0.1156
     19 C         142.4655  138.2184  164.7804 C.3     1  UNL1        0.2543
     20 O         141.0583  137.7008  164.8268 O.3     1  UNL1       -0.4553
     21 C         138.0212  142.4888  164.4359 C.3     1  UNL1        0.0394
     22 C         138.2939  143.5254  163.3866 C.3     1  UNL1        0.0765
     23 N         139.5599  143.4655  162.5843 N.3     1  UNL1       -0.2700
     24 C         140.4857  144.6454  162.5549 C.3     1  UNL1        0.0897
     25 C         139.9001  142.2258  161.8115 C.3     1  UNL1        0.0897
@<TRIPOS>BOND
     1    19    20    1
     2    20    13    1
     3    13    14   ar
     4    14    15   ar
     5    15    16   ar
     6    16    17   ar
     7    17    18   ar
     8    18    11    1
     9    11    12    1
    10    11     1    1
    11     1     2    2
    12     2    21    1
    13    21    22    1
    14    22    23    1
    15    23    24    1
    16    23    25    1
    17     2     3    1
    18     3     4    1
    19     4     5   ar
    20     5     6   ar
    21     6     7    1
    22     6     8   ar
    23     8     9   ar
    24     9    10   ar
    25    18    13   ar
    26    10     1    1
    27    10     4   ar
@<TRIPOS>MOLECULE
*****
 25 27 0 0 0
SMALL
GASTEIGER

@<TRIPOS>ATOM
      1 C         140.8356  142.9886  165.3907 C.2     1  UNL1       -0.0245
      2 C         142.2217  143.3881  164.9794 C.2     1  UNL1       -0.0421
      3 C         143.1943  142.6566  165.8563 C.3     1  UNL1        0.0480
      4 C         142.4093  141.8051  166.8095 C.ar    1  UNL1       -0.0187
      5 C         142.8336  140.8694  167.9024 C.ar    1  UNL1       -0.0082
      6 C         141.8001  140.1389  168.7075 C.ar    1  UNL1       -0.0222
      7 C         142.2244  139.2031  169.8004 C.3     1  UNL1        0.0310
      8 C         140.3423  140.3441  168.4197 C.ar    1  UNL1       -0.0043
      9 C         139.9180  141.2798  167.3269 C.ar    1  UNL1       -0.0009
     10 C         140.9515  142.0103  166.5218 C.ar    1  UNL1       -0.0079
     11 C         139.5578  143.4811  164.7784 C.3     1  UNL1        0.0666
     12 C         138.8450  144.6583  165.3753 C.3     1  UNL1        0.0112
     13 C         138.4915  143.6094  162.4127 C.ar    1  UNL1        0.2393
     14 N         137.9265  142.9247  161.2037 N.ar    1  UNL1       -0.2075
     15 C         137.8628  141.4270  161.1511 C.ar    1  UNL1        0.1227
     16 C         138.3641  140.6139  162.3077 C.ar    1  UNL1        0.1193
     17 N         138.9291  141.2986  163.5168 N.ar    1  UNL1       -0.2415
     18 C         138.9928  142.7964  163.5694 C.ar    1  UNL1        0.1156
     19 C         139.7149  145.8306  161.8472 C.3     1  UNL1        0.2543
     20 O         138.5552  145.1071  162.4652 O.3     1  UNL1       -0.4553
     21 C         142.5734  144.3501  163.8835 C.3     1  UNL1        0.0394
     22 C         143.9355  144.3076  163.2568 C.3     1  UNL1        0.0765
     23 N         144.3108  143.1694  162.3547 N.3     1  UNL1       -0.2700
     24 C         143.7180  143.0751  160.9799 C.3     1  UNL1        0.0897
     25 C         145.2787  142.1256  162.8273 C.3     1  UNL1        0.0897
@<TRIPOS>BOND
     1    19    20    1
     2    20    13    1
     3    13    14   ar
     4    14    15   ar
     5    15    16   ar
     6    16    17   ar
     7    17    18   ar
     8    18    11    1
     9    11    12    1
    10    11     1    1
    11     1     2    2
    12     2    21    1
    13    21    22    1
    14    22    23    1
    15    23    24    1
    16    23    25    1
    17     2     3    1
    18     3     4    1
    19     4     5   ar
    20     5     6   ar
    21     6     7    1
    22     6     8   ar
    23     8     9   ar
    24     9    10   ar
    25    18    13   ar
    26    10     1    1
    27    10     4   ar
@<TRIPOS>MOLECULE
*****
 25 27 0 0 0
SMALL
GASTEIGER

@<TRIPOS>ATOM
      1 C         139.8549  142.3584  165.2367 C.2     1  UNL1       -0.0245
      2 C         139.2495  141.1949  164.5089 C.2     1  UNL1       -0.0421
      3 C         139.0327  140.0902  165.5001 C.3     1  UNL1        0.0480
      4 C         139.5041  140.5709  166.8405 C.ar    1  UNL1       -0.0187
      5 C         139.5363  139.9132  168.1882 C.ar    1  UNL1       -0.0082
      6 C         140.0767  140.6574  169.3731 C.ar    1  UNL1       -0.0222
      7 C         140.1089  139.9998  170.7209 C.3     1  UNL1        0.0310
      8 C         140.5848  142.0593  169.2103 C.ar    1  UNL1       -0.0043
      9 C         140.5526  142.7170  167.8626 C.ar    1  UNL1       -0.0009
     10 C         140.0122  141.9728  166.6777 C.ar    1  UNL1       -0.0079
     11 C         140.2360  143.6763  164.6300 C.3     1  UNL1        0.0666
     12 C         139.2883  144.8369  164.7014 C.3     1  UNL1        0.0112
     13 C         141.6264  144.1978  162.4982 C.ar    1  UNL1        0.2393
     14 N         142.9551  144.3552  161.8202 N.ar    1  UNL1       -0.2075
     15 C         144.2221  144.1483  162.5959 C.ar    1  UNL1        0.1227
     16 C         144.1605  143.7841  164.0498 C.ar    1  UNL1        0.1193
     17 N         142.8317  143.6268  164.7278 N.ar    1  UNL1       -0.2415
     18 C         141.5646  143.8336  163.9520 C.ar    1  UNL1        0.1156
     19 C         140.0152  145.7672  161.1977 C.3     1  UNL1        0.2543
     20 O         140.3594  144.4047  161.7224 O.3     1  UNL1       -0.4553
     21 C         138.9189  141.1449  163.0466 C.3     1  UNL1        0.0394
     22 C         139.6180  140.1641  162.1527 C.3     1  UNL1        0.0765
     23 N         139.2534  138.7100  162.2044 N.3     1  UNL1       -0.2700
     24 C         137.8775  138.2671  161.8031 C.3     1  UNL1        0.0897
     25 C         140.2644  137.6989  162.6575 C.3     1  UNL1        0.0897
@<TRIPOS>BOND
     1    19    20    1
     2    20    13    1
     3    13    14   ar
     4    14    15   ar
     5    15    16   ar
     6    16    17   ar
     7    17    18   ar
     8    18    11    1
     9    11    12    1
    10    11     1    1
    11     1     2    2
    12     2    21    1
    13    21    22    1
    14    22    23    1
    15    23    24    1
    16    23    25    1
    17     2     3    1
    18     3     4    1
    19     4     5   ar
    20     5     6   ar
    21     6     7    1
    22     6     8   ar
    23     8     9   ar
    24     9    10   ar
    25    18    13   ar
    26    10     1    1
    27    10     4   ar
@<TRIPOS>MOLECULE
*****
 25 27 0 0 0
SMALL
GASTEIGER

@<TRIPOS>ATOM
      1 C         139.0342  142.3951  164.9924 C.2     1  UNL1       -0.0245
      2 C         138.2126  141.2711  164.4343 C.2     1  UNL1       -0.0421
      3 C         138.3666  140.0883  165.3438 C.3     1  UNL1        0.0480
      4 C         139.2834  140.4813  166.4641 C.ar    1  UNL1       -0.0187
      5 C         139.7958  139.7252  167.6539 C.ar    1  UNL1       -0.0082
      6 C         140.7208  140.3947  168.6265 C.ar    1  UNL1       -0.0222
      7 C         141.2333  139.6386  169.8164 C.3     1  UNL1        0.0310
      8 C         141.1334  141.8204  168.4093 C.ar    1  UNL1       -0.0043
      9 C         140.6210  142.5765  167.2195 C.ar    1  UNL1       -0.0009
     10 C         139.6960  141.9070  166.2469 C.ar    1  UNL1       -0.0079
     11 C         139.1702  143.7664  164.4001 C.3     1  UNL1        0.0666
     12 C         138.5585  144.9473  165.0941 C.3     1  UNL1        0.0112
     13 C         141.4177  143.9750  163.1135 C.ar    1  UNL1        0.2393
     14 N         142.1652  144.1657  161.8271 N.ar    1  UNL1       -0.2075
     15 C         141.4129  144.3384  160.5409 C.ar    1  UNL1        0.1227
     16 C         139.9130  144.3205  160.5411 C.ar    1  UNL1        0.1193
     17 N         139.1655  144.1299  161.8275 N.ar    1  UNL1       -0.2415
     18 C         139.9178  143.9571  163.1138 C.ar    1  UNL1        0.1156
     19 C         143.1926  142.7126  164.5297 C.3     1  UNL1        0.2543
     20 O         142.1700  143.8023  164.3996 O.3     1  UNL1       -0.4553
     21 C         137.3827  141.3211  163.1858 C.3     1  UNL1        0.0394
     22 C         137.9362  140.7929  161.8956 C.3     1  UNL1        0.0765
     23 N         139.1716  139.9421  161.9019 N.3     1  UNL1       -0.2700
     24 C         139.0569  138.4544  162.0563 C.3     1  UNL1        0.0897
     25 C         140.5215  140.5789  161.7539 C.3     1  UNL1        0.0897
@<TRIPOS>BOND
     1    19    20    1
     2    20    13    1
     3    13    14   ar
     4    14    15   ar
     5    15    16   ar
     6    16    17   ar
     7    17    18   ar
     8    18    11    1
     9    11    12    1
    10    11     1    1
    11     1     2    2
    12     2    21    1
    13    21    22    1
    14    22    23    1
    15    23    24    1
    16    23    25    1
    17     2     3    1
    18     3     4    1
    19     4     5   ar
    20     5     6   ar
    21     6     7    1
    22     6     8   ar
    23     8     9   ar
    24     9    10   ar
    25    18    13   ar
    26    10     1    1
    27    10     4   ar
@<TRIPOS>MOLECULE
*****
 25 27 0 0 0
SMALL
GASTEIGER

@<TRIPOS>ATOM
      1 C         140.9722  143.2378  165.1953 C.2     1  UNL1       -0.0245
      2 C         142.3714  143.5849  164.7807 C.2     1  UNL1       -0.0421
      3 C         143.3177  142.8081  165.6473 C.3     1  UNL1        0.0480
      4 C         142.5034  141.9809  166.5974 C.ar    1  UNL1       -0.0187
      5 C         142.8947  141.0202  167.6808 C.ar    1  UNL1       -0.0082
      6 C         141.8363  140.3251  168.4849 C.ar    1  UNL1       -0.0222
      7 C         142.2276  139.3643  169.5684 C.3     1  UNL1        0.0310
      8 C         140.3867  140.5907  168.2056 C.ar    1  UNL1       -0.0043
      9 C         139.9954  141.5514  167.1221 C.ar    1  UNL1       -0.0009
     10 C         141.0538  142.2465  166.3180 C.ar    1  UNL1       -0.0079
     11 C         139.7125  143.7858  164.5928 C.3     1  UNL1        0.0666
     12 C         138.8934  144.7886  165.3503 C.3     1  UNL1        0.0112
     13 C         138.3006  142.1959  163.1000 C.ar    1  UNL1        0.2393
     14 N         137.8600  141.7413  161.7402 N.ar    1  UNL1       -0.2075
     15 C         138.3906  142.4219  160.5134 C.ar    1  UNL1        0.1227
     16 C         139.3619  143.5572  160.6463 C.ar    1  UNL1        0.1193
     17 N         139.8025  144.0118  162.0062 N.ar    1  UNL1       -0.2415
     18 C         139.2719  143.3312  163.2331 C.ar    1  UNL1        0.1156
     19 C         138.0954  140.0739  164.5849 C.3     1  UNL1        0.2543
     20 O         137.7699  141.5152  164.3268 O.3     1  UNL1       -0.4553
     21 C         142.7565  144.5409  163.6909 C.3     1  UNL1        0.0394
     22 C         144.0357  144.3395  162.9339 C.3     1  UNL1        0.0765
     23 N         144.1945  143.1512  162.0323 N.3     1  UNL1       -0.2700
     24 C         145.1489  142.0536  162.3992 C.3     1  UNL1        0.0897
     25 C         143.3991  143.0606  160.7639 C.3     1  UNL1        0.0897
@<TRIPOS>BOND
     1    19    20    1
     2    20    13    1
     3    13    14   ar
     4    14    15   ar
     5    15    16   ar
     6    16    17   ar
     7    17    18   ar
     8    18    11    1
     9    11    12    1
    10    11     1    1
    11     1     2    2
    12     2    21    1
    13    21    22    1
    14    22    23    1
    15    23    24    1
    16    23    25    1
    17     2     3    1
    18     3     4    1
    19     4     5   ar
    20     5     6   ar
    21     6     7    1
    22     6     8   ar
    23     8     9   ar
    24     9    10   ar
    25    18    13   ar
    26    10     1    1
    27    10     4   ar
@<TRIPOS>MOLECULE
*****
 25 27 0 0 0
SMALL
GASTEIGER

@<TRIPOS>ATOM
      1 C         143.1882  141.8905  165.6410 C.2     1  UNL1       -0.0245
      2 C         143.6324  140.5257  165.2054 C.2     1  UNL1       -0.0421
      3 C         142.9479  139.5152  166.0773 C.3     1  UNL1        0.0480
      4 C         142.0805  140.2555  167.0518 C.ar    1  UNL1       -0.0187
      5 C         141.1747  139.7825  168.1498 C.ar    1  UNL1       -0.0082
      6 C         140.4173  140.7776  168.9782 C.ar    1  UNL1       -0.0222
      7 C         139.5115  140.3047  170.0763 C.3     1  UNL1        0.0310
      8 C         140.5659  142.2457  168.7085 C.ar    1  UNL1       -0.0043
      9 C         141.4717  142.7187  167.6105 C.ar    1  UNL1       -0.0009
     10 C         142.2290  141.7236  166.7821 C.ar    1  UNL1       -0.0079
     11 C         143.6261  143.1936  165.0408 C.3     1  UNL1        0.0666
     12 C         144.8486  143.8873  165.5646 C.3     1  UNL1        0.0112
     13 C         143.3553  143.7160  162.5103 C.ar    1  UNL1        0.2393
     14 N         142.5708  144.3254  161.3864 N.ar    1  UNL1       -0.2075
     15 C         141.2728  145.0219  161.6690 C.ar    1  UNL1        0.1227
     16 C         140.7591  145.1090  163.0757 C.ar    1  UNL1        0.1193
     17 N         141.5436  144.4995  164.1996 N.ar    1  UNL1       -0.2415
     18 C         142.8417  143.8030  163.9169 C.ar    1  UNL1        0.1156
     19 C         144.9601  142.5393  160.8399 C.3     1  UNL1        0.2543
     20 O         144.6533  143.0195  162.2275 O.3     1  UNL1       -0.4553
     21 C         144.5927  140.2242  164.0931 C.3     1  UNL1        0.0394
     22 C         144.2508  139.1833  163.0686 C.3     1  UNL1        0.0765
     23 N         142.8495  139.0792  162.5439 N.3     1  UNL1       -0.2700
     24 C         142.2931  140.1644  161.6706 C.3     1  UNL1        0.0897
     25 C         142.0046  137.8899  162.8925 C.3     1  UNL1        0.0897
@<TRIPOS>BOND
     1    19    20    1
     2    20    13    1
     3    13    14   ar
     4    14    15   ar
     5    15    16   ar
     6    16    17   ar
     7    17    18   ar
     8    18    11    1
     9    11    12    1
    10    11     1    1
    11     1     2    2
    12     2    21    1
    13    21    22    1
    14    22    23    1
    15    23    24    1
    16    23    25    1
    17     2     3    1
    18     3     4    1
    19     4     5   ar
    20     5     6   ar
    21     6     7    1
    22     6     8   ar
    23     8     9   ar
    24     9    10   ar
    25    18    13   ar
    26    10     1    1
    27    10     4   ar
