@<TRIPOS>MOLECULE
*****
 31 34 0 0 0
SMALL
GASTEIGER

@<TRIPOS>ATOM
      1 C         138.3023  138.8945  162.3848 C.ar    1  UNL1       -0.0176
      2 C         138.7758  137.7323  163.2064 C.ar    1  UNL1       -0.0039
      3 C         138.9524  137.8839  164.6882 C.ar    1  UNL1       -0.0003
      4 C         138.6555  139.1977  165.3484 C.ar    1  UNL1       -0.0003
      5 C         138.1820  140.3599  164.5268 C.ar    1  UNL1       -0.0003
      6 C         138.0054  140.2083  163.0450 C.ar    1  UNL1       -0.0039
      7 C         138.8321  139.3492  166.8302 C.2     1  UNL1       -0.0029
      8 C         140.0159  140.0942  167.3723 C.2     1  UNL1       -0.0047
      9 C         140.1924  140.2457  168.8541 C.3     1  UNL1        0.1200
     10 N         141.2241  141.1915  169.3936 N.am    1  UNL1       -0.2729
     11 C         140.8366  142.5923  169.7644 C.3     1  UNL1        0.1108
     12 C         141.8683  143.5380  170.3039 C.3     1  UNL1        0.0907
     13 N         143.2877  143.0829  170.4727 N.3     1  UNL1       -0.2884
     14 C         143.6753  141.6821  170.1018 C.3     1  UNL1        0.1552
     15 C         142.6434  140.7364  169.5623 C.2     1  UNL1        0.2420
     16 O         143.0310  139.3356  169.1915 O.2     1  UNL1       -0.2734
     17 H         143.5196  143.2013  171.4588 H       1  UNL1        0.1237
     18 C         138.1257  138.7429  160.9029 C.3     1  UNL1        0.0570
     19 C         140.4457  139.8150  160.1197 C.ar    1  UNL1        0.0782
     20 N         140.8902  140.6437  158.9511 N.ar    1  UNL1       -0.1687
     21 N         139.6994  140.8789  158.0698 N.ar    1  UNL1       -0.2168
     22 C         139.5376  141.6271  156.7799 C.ar    1  UNL1        0.0636
     23 C         140.7181  142.3105  156.1560 C.3     1  UNL1        0.0522
     24 C         138.1951  141.6918  156.1138 C.ar    1  UNL1        0.0296
     25 C         137.0146  141.0083  156.7377 C.ar    1  UNL1        0.0622
     26 C         135.6721  141.0731  156.0715 C.3     1  UNL1        0.0522
     27 N         137.1765  140.2602  158.0276 N.ar    1  UNL1       -0.2311
     28 C         138.5189  140.1955  158.6937 C.ar    1  UNL1        0.1604
     29 C         138.9801  139.5379  159.9606 C.ar    1  UNL1        0.0332
     30 C         141.7069  140.2983  162.3390 C.3     1  UNL1        0.0067
     31 C         141.3142  139.3456  161.2490 C.3     1  UNL1        0.0474
@<TRIPOS>BOND
     1    30    31    1
     2    31    19    1
     3    19    20   ar
     4    20    21   ar
     5    21    22   ar
     6    22    23    1
     7    22    24   ar
     8    24    25   ar
     9    25    26    1
    10    25    27   ar
    11    27    28   ar
    12    28    29   ar
    13    29    18    1
    14    18     1    1
    15     1     2   ar
    16     2     3   ar
    17     3     4   ar
    18     4     7    1
    19     7     8    2
    20     8     9    1
    21     9    10    1
    22    10    11    1
    23    11    12    1
    24    12    13    1
    25    13    14    1
    26    14    15    1
    27    15    16    2
    28     4     5   ar
    29     5     6   ar
    30    29    19   ar
    31     6     1   ar
    32    28    21   ar
    33    15    10   am
    34    13    17    1
@<TRIPOS>MOLECULE
*****
 31 34 0 0 0
SMALL
GASTEIGER

@<TRIPOS>ATOM
      1 C         140.1832  144.3793  162.3879 C.ar    1  UNL1       -0.0176
      2 C         140.6937  144.6896  163.7638 C.ar    1  UNL1       -0.0039
      3 C         140.4305  143.7385  164.8934 C.ar    1  UNL1       -0.0003
      4 C         139.6568  142.4772  164.6472 C.ar    1  UNL1       -0.0003
      5 C         139.1464  142.1670  163.2713 C.ar    1  UNL1       -0.0003
      6 C         139.4096  143.1180  162.1417 C.ar    1  UNL1       -0.0039
      7 C         139.3936  141.5262  165.7770 C.2     1  UNL1       -0.0029
      8 C         140.5397  140.9462  166.5517 C.2     1  UNL1       -0.0047
      9 C         140.2764  139.9952  167.6814 C.3     1  UNL1        0.1200
     10 N         140.9127  140.2264  169.0200 N.am    1  UNL1       -0.2729
     11 C         140.1761  140.9930  170.0781 C.3     1  UNL1        0.1108
     12 C         140.8123  141.2241  171.4167 C.3     1  UNL1        0.0907
     13 N         142.1852  140.6887  171.6971 N.3     1  UNL1       -0.2884
     14 C         142.9218  139.9220  170.6389 C.3     1  UNL1        0.1552
     15 C         142.2855  139.6909  169.3004 C.2     1  UNL1        0.2420
     16 O         143.0221  138.9243  168.2422 O.2     1  UNL1       -0.2734
     17 H         142.1010  140.0702  172.5039 H       1  UNL1        0.1237
     18 C         140.4464  145.3304  161.2581 C.3     1  UNL1        0.0570
     19 C         142.4184  143.9434  160.1036 C.ar    1  UNL1        0.0782
     20 N         142.9159  143.7764  158.6984 N.ar    1  UNL1       -0.1687
     21 N         142.0546  144.6128  157.7991 N.ar    1  UNL1       -0.2168
     22 C         142.0750  144.8400  156.3166 C.ar    1  UNL1        0.0636
     23 C         143.1049  144.1561  155.4672 C.3     1  UNL1        0.0522
     24 C         141.0655  145.7510  155.6835 C.ar    1  UNL1        0.0296
     25 C         140.0356  146.4349  156.5330 C.ar    1  UNL1        0.0622
     26 C         139.0261  147.3461  155.8998 C.3     1  UNL1        0.0522
     27 N         140.0152  146.2078  158.0155 N.ar    1  UNL1       -0.2311
     28 C         141.0247  145.2967  158.6486 C.ar    1  UNL1        0.1604
     29 C         141.2495  144.8830  160.0728 C.ar    1  UNL1        0.0332
     30 C         143.9658  144.0282  162.1888 C.3     1  UNL1        0.0067
     31 C         142.9894  143.2863  161.3250 C.3     1  UNL1        0.0474
@<TRIPOS>BOND
     1    30    31    1
     2    31    19    1
     3    19    20   ar
     4    20    21   ar
     5    21    22   ar
     6    22    23    1
     7    22    24   ar
     8    24    25   ar
     9    25    26    1
    10    25    27   ar
    11    27    28   ar
    12    28    29   ar
    13    29    18    1
    14    18     1    1
    15     1     2   ar
    16     2     3   ar
    17     3     4   ar
    18     4     7    1
    19     7     8    2
    20     8     9    1
    21     9    10    1
    22    10    11    1
    23    11    12    1
    24    12    13    1
    25    13    14    1
    26    14    15    1
    27    15    16    2
    28     4     5   ar
    29     5     6   ar
    30    29    19   ar
    31     6     1   ar
    32    28    21   ar
    33    15    10   am
    34    13    17    1
@<TRIPOS>MOLECULE
*****
 31 34 0 0 0
SMALL
GASTEIGER

@<TRIPOS>ATOM
      1 C         143.6206  142.0150  165.1821 C.ar    1  UNL1       -0.0176
      2 C         144.6174  141.0898  164.5493 C.ar    1  UNL1       -0.0039
      3 C         145.0036  141.2734  163.1116 C.ar    1  UNL1       -0.0003
      4 C         144.3930  142.3821  162.3066 C.ar    1  UNL1       -0.0003
      5 C         143.3962  143.3073  162.9394 C.ar    1  UNL1       -0.0003
      6 C         143.0100  143.1236  164.3771 C.ar    1  UNL1       -0.0039
      7 C         144.7793  142.5656  160.8689 C.2     1  UNL1       -0.0029
      8 C         143.7236  142.5698  159.8032 C.2     1  UNL1       -0.0047
      9 C         144.1100  142.7534  158.3655 C.3     1  UNL1        0.1200
     10 N         144.3299  141.5559  157.4893 N.am    1  UNL1       -0.2729
     11 C         143.3105  140.4561  157.4526 C.3     1  UNL1        0.1108
     12 C         143.5304  139.2586  156.5764 C.3     1  UNL1        0.0907
     13 N         144.7697  139.1609  155.7369 N.3     1  UNL1       -0.2884
     14 C         145.7891  140.2607  155.7736 C.3     1  UNL1        0.1552
     15 C         145.5691  141.4582  156.6499 C.2     1  UNL1        0.2420
     16 O         146.5885  142.5580  156.6866 O.2     1  UNL1       -0.2734
     17 H         144.4630  139.0760  154.7678 H       1  UNL1        0.1237
     18 C         143.2343  141.8314  166.6199 C.3     1  UNL1        0.0570
     19 C         141.0363  141.6505  168.1302 C.ar    1  UNL1        0.0782
     20 N         139.7922  140.8132  168.0965 N.ar    1  UNL1       -0.1687
     21 N         139.8835  139.8947  166.9141 N.ar    1  UNL1       -0.2168
     22 C         138.9504  138.8477  166.3821 C.ar    1  UNL1        0.0636
     23 C         137.6499  138.5780  167.0792 C.3     1  UNL1        0.0522
     24 C         139.3179  138.0703  165.1531 C.ar    1  UNL1        0.0296
     25 C         140.6184  138.3399  164.4560 C.ar    1  UNL1        0.0622
     26 C         140.9859  137.5625  163.2269 C.3     1  UNL1        0.0522
     27 N         141.5515  139.3869  164.9880 N.ar    1  UNL1       -0.2311
     28 C         141.1840  140.1643  166.2171 C.ar    1  UNL1        0.1604
     29 C         141.8965  141.2495  166.9687 C.ar    1  UNL1        0.0332
     30 C         140.3320  143.7253  169.5263 C.3     1  UNL1        0.0067
     31 C         141.3629  142.7039  169.1470 C.3     1  UNL1        0.0474
@<TRIPOS>BOND
     1    30    31    1
     2    31    19    1
     3    19    20   ar
     4    20    21   ar
     5    21    22   ar
     6    22    23    1
     7    22    24   ar
     8    24    25   ar
     9    25    26    1
    10    25    27   ar
    11    27    28   ar
    12    28    29   ar
    13    29    18    1
    14    18     1    1
    15     1     2   ar
    16     2     3   ar
    17     3     4   ar
    18     4     7    1
    19     7     8    2
    20     8     9    1
    21     9    10    1
    22    10    11    1
    23    11    12    1
    24    12    13    1
    25    13    14    1
    26    14    15    1
    27    15    16    2
    28     4     5   ar
    29     5     6   ar
    30    29    19   ar
    31     6     1   ar
    32    28    21   ar
    33    15    10   am
    34    13    17    1
@<TRIPOS>MOLECULE
*****
 31 34 0 0 0
SMALL
GASTEIGER

@<TRIPOS>ATOM
      1 C         139.1184  139.3897  161.3585 C.ar    1  UNL1       -0.0176
      2 C         138.8991  138.0721  162.0412 C.ar    1  UNL1       -0.0039
      3 C         138.7598  138.0149  163.5336 C.ar    1  UNL1       -0.0003
      4 C         138.8398  139.2750  164.3433 C.ar    1  UNL1       -0.0003
      5 C         139.0591  140.5925  163.6606 C.ar    1  UNL1       -0.0003
      6 C         139.1984  140.6498  162.1682 C.ar    1  UNL1       -0.0039
      7 C         138.7005  139.2176  165.8357 C.2     1  UNL1       -0.0029
      8 C         139.6143  140.0285  166.7061 C.2     1  UNL1       -0.0047
      9 C         139.4750  139.9710  168.1985 C.3     1  UNL1        0.1200
     10 N         140.4927  140.6413  169.0730 N.am    1  UNL1       -0.2729
     11 C         141.5261  141.5432  168.4657 C.3     1  UNL1        0.1108
     12 C         142.5438  142.2134  169.3403 C.3     1  UNL1        0.0907
     13 N         142.5282  141.9818  170.8223 N.3     1  UNL1       -0.2884
     14 C         141.4949  141.0799  171.4297 C.3     1  UNL1        0.1552
     15 C         140.4772  140.4097  170.5550 C.2     1  UNL1        0.2420
     16 O         139.4438  139.5078  171.1623 O.2     1  UNL1       -0.2734
     17 H         142.4167  142.8954  171.2620 H       1  UNL1        0.1237
     18 C         139.2577  139.4470  159.8660 C.3     1  UNL1        0.0570
     19 C         141.7861  138.5852  159.7672 C.ar    1  UNL1        0.0782
     20 N         142.6176  137.8507  158.7577 N.ar    1  UNL1       -0.1687
     21 N         141.7571  137.5756  157.5603 N.ar    1  UNL1       -0.2168
     22 C         142.0388  136.8841  156.2594 C.ar    1  UNL1        0.0636
     23 C         143.4022  136.3196  155.9900 C.3     1  UNL1        0.0522
     24 C         140.9572  136.7570  155.2280 C.ar    1  UNL1        0.0296
     25 C         139.5938  137.3215  155.4974 C.ar    1  UNL1        0.0622
     26 C         138.5122  137.1945  154.4659 C.3     1  UNL1        0.0522
     27 N         139.3121  138.0131  156.7983 N.ar    1  UNL1       -0.2311
     28 C         140.3937  138.1402  157.8297 C.ar    1  UNL1        0.1604
     29 C         140.4117  138.7641  159.1937 C.ar    1  UNL1        0.0332
     30 C         142.5875  138.0616  162.1825 C.3     1  UNL1        0.0067
     31 C         142.2479  139.0579  161.1138 C.3     1  UNL1        0.0474
@<TRIPOS>BOND
     1    30    31    1
     2    31    19    1
     3    19    20   ar
     4    20    21   ar
     5    21    22   ar
     6    22    23    1
     7    22    24   ar
     8    24    25   ar
     9    25    26    1
    10    25    27   ar
    11    27    28   ar
    12    28    29   ar
    13    29    18    1
    14    18     1    1
    15     1     2   ar
    16     2     3   ar
    17     3     4   ar
    18     4     7    1
    19     7     8    2
    20     8     9    1
    21     9    10    1
    22    10    11    1
    23    11    12    1
    24    12    13    1
    25    13    14    1
    26    14    15    1
    27    15    16    2
    28     4     5   ar
    29     5     6   ar
    30    29    19   ar
    31     6     1   ar
    32    28    21   ar
    33    15    10   am
    34    13    17    1
@<TRIPOS>MOLECULE
*****
 31 34 0 0 0
SMALL
GASTEIGER

@<TRIPOS>ATOM
      1 C         138.6236  139.8041  160.6910 C.ar    1  UNL1       -0.0176
      2 C         137.7229  140.8524  161.2739 C.ar    1  UNL1       -0.0039
      3 C         137.5709  140.9677  162.7617 C.ar    1  UNL1       -0.0003
      4 C         138.3196  140.0347  163.6666 C.ar    1  UNL1       -0.0003
      5 C         139.2204  138.9863  163.0838 C.ar    1  UNL1       -0.0003
      6 C         139.3723  138.8711  161.5960 C.ar    1  UNL1       -0.0039
      7 C         138.1676  140.1500  165.1544 C.2     1  UNL1       -0.0029
      8 C         139.0418  139.3374  166.0630 C.2     1  UNL1       -0.0047
      9 C         138.8897  139.4527  167.5507 C.3     1  UNL1        0.1200
     10 N         139.6224  140.5271  168.2984 N.am    1  UNL1       -0.2729
     11 C         140.6413  141.3711  167.5918 C.3     1  UNL1        0.1108
     12 C         141.3740  142.4454  168.3394 C.3     1  UNL1        0.0907
     13 N         141.0877  142.6758  169.7938 N.3     1  UNL1       -0.2884
     14 C         140.0687  141.8318  170.5004 C.3     1  UNL1        0.1552
     15 C         139.3361  140.7575  169.7527 C.2     1  UNL1        0.2420
     16 O         138.3171  139.9135  170.4593 O.2     1  UNL1       -0.2734
     17 H         140.7811  143.6445  169.8837 H       1  UNL1        0.1237
     18 C         138.7757  139.6887  159.2031 C.3     1  UNL1        0.0570
     19 C         139.6370  142.0647  158.3326 C.ar    1  UNL1        0.0782
     20 N         139.1531  143.0638  157.3238 N.ar    1  UNL1       -0.1687
     21 N         137.8932  142.5294  156.7097 N.ar    1  UNL1       -0.2168
     22 C         136.9763  143.0815  155.6588 C.ar    1  UNL1        0.0636
     23 C         137.2710  144.4109  155.0295 C.3     1  UNL1        0.0522
     24 C         135.7646  142.3043  155.2372 C.ar    1  UNL1        0.0296
     25 C         135.4699  140.9750  155.8665 C.ar    1  UNL1        0.0622
     26 C         134.2582  140.1977  155.4448 C.3     1  UNL1        0.0522
     27 N         136.3868  140.4228  156.9174 N.ar    1  UNL1       -0.2311
     28 C         137.5985  141.2000  157.3390 C.ar    1  UNL1        0.1604
     29 C         138.6762  140.9129  158.3419 C.ar    1  UNL1        0.0332
     30 C         140.7850  142.8690  160.5201 C.3     1  UNL1        0.0067
     31 C         140.8660  142.1947  159.1827 C.3     1  UNL1        0.0474
@<TRIPOS>BOND
     1    30    31    1
     2    31    19    1
     3    19    20   ar
     4    20    21   ar
     5    21    22   ar
     6    22    23    1
     7    22    24   ar
     8    24    25   ar
     9    25    26    1
    10    25    27   ar
    11    27    28   ar
    12    28    29   ar
    13    29    18    1
    14    18     1    1
    15     1     2   ar
    16     2     3   ar
    17     3     4   ar
    18     4     7    1
    19     7     8    2
    20     8     9    1
    21     9    10    1
    22    10    11    1
    23    11    12    1
    24    12    13    1
    25    13    14    1
    26    14    15    1
    27    15    16    2
    28     4     5   ar
    29     5     6   ar
    30    29    19   ar
    31     6     1   ar
    32    28    21   ar
    33    15    10   am
    34    13    17    1
@<TRIPOS>MOLECULE
*****
 31 34 0 0 0
SMALL
GASTEIGER

@<TRIPOS>ATOM
      1 C         143.2948  138.9125  161.4634 C.ar    1  UNL1       -0.0176
      2 C         144.1809  139.6670  162.4097 C.ar    1  UNL1       -0.0039
      3 C         143.9902  139.5245  163.8907 C.ar    1  UNL1       -0.0003
      4 C         142.9133  138.6276  164.4254 C.ar    1  UNL1       -0.0003
      5 C         142.0272  137.8731  163.4790 C.ar    1  UNL1       -0.0003
      6 C         142.2179  138.0156  161.9981 C.ar    1  UNL1       -0.0039
      7 C         142.7226  138.4852  165.9063 C.2     1  UNL1       -0.0029
      8 C         142.7597  139.6985  166.7875 C.2     1  UNL1       -0.0047
      9 C         142.5690  139.5560  168.2685 C.3     1  UNL1        0.1200
     10 N         142.0936  140.7250  169.0793 N.am    1  UNL1       -0.2729
     11 C         143.0536  141.8120  169.4625 C.3     1  UNL1        0.1108
     12 C         142.5781  142.9810  170.2733 C.3     1  UNL1        0.0907
     13 N         141.1427  143.0629  170.7011 N.3     1  UNL1       -0.2884
     14 C         140.1827  141.9759  170.3179 C.3     1  UNL1        0.1552
     15 C         140.6582  140.8069  169.5071 C.2     1  UNL1        0.2420
     16 O         139.6983  139.7199  169.1240 O.2     1  UNL1       -0.2734
     17 H         140.7707  143.9324  170.3189 H       1  UNL1        0.1237
     18 C         143.4855  139.0550  159.9824 C.3     1  UNL1        0.0570
     19 C         141.0800  139.6858  159.0023 C.ar    1  UNL1        0.0782
     20 N         140.1918  139.1273  157.9303 N.ar    1  UNL1       -0.1687
     21 N         140.8881  137.9476  157.3192 N.ar    1  UNL1       -0.2168
     22 C         140.4919  137.0068  156.2202 C.ar    1  UNL1        0.0636
     23 C         139.1733  137.1775  155.5258 C.3     1  UNL1        0.0522
     24 C         141.4143  135.8953  155.8156 C.ar    1  UNL1        0.0296
     25 C         142.7329  135.7247  156.5099 C.ar    1  UNL1        0.0622
     26 C         143.6553  134.6131  156.1052 C.3     1  UNL1        0.0522
     27 N         143.1291  136.6655  157.6089 N.ar    1  UNL1       -0.2311
     28 C         142.2067  137.7770  158.0135 C.ar    1  UNL1        0.1604
     29 C         142.3253  138.8512  159.0537 C.ar    1  UNL1        0.0332
     30 C         139.3522  141.2460  160.1558 C.3     1  UNL1        0.0067
     31 C         140.7762  140.8707  159.8704 C.3     1  UNL1        0.0474
@<TRIPOS>BOND
     1    30    31    1
     2    31    19    1
     3    19    20   ar
     4    20    21   ar
     5    21    22   ar
     6    22    23    1
     7    22    24   ar
     8    24    25   ar
     9    25    26    1
    10    25    27   ar
    11    27    28   ar
    12    28    29   ar
    13    29    18    1
    14    18     1    1
    15     1     2   ar
    16     2     3   ar
    17     3     4   ar
    18     4     7    1
    19     7     8    2
    20     8     9    1
    21     9    10    1
    22    10    11    1
    23    11    12    1
    24    12    13    1
    25    13    14    1
    26    14    15    1
    27    15    16    2
    28     4     5   ar
    29     5     6   ar
    30    29    19   ar
    31     6     1   ar
    32    28    21   ar
    33    15    10   am
    34    13    17    1
@<TRIPOS>MOLECULE
*****
 31 34 0 0 0
SMALL
GASTEIGER

@<TRIPOS>ATOM
      1 C         140.3688  140.0632  162.4759 C.ar    1  UNL1       -0.0176
      2 C         141.0095  138.7511  162.8190 C.ar    1  UNL1       -0.0039
      3 C         141.7818  137.9984  161.7764 C.ar    1  UNL1       -0.0003
      4 C         141.9134  138.5577  160.3909 C.ar    1  UNL1       -0.0003
      5 C         141.2726  139.8699  160.0478 C.ar    1  UNL1       -0.0003
      6 C         140.5003  140.6226  161.0903 C.ar    1  UNL1       -0.0039
      7 C         142.6857  137.8049  159.3484 C.2     1  UNL1       -0.0029
      8 C         142.2092  137.7910  157.9261 C.2     1  UNL1       -0.0047
      9 C         142.9815  137.0382  156.8837 C.3     1  UNL1        0.1200
     10 N         142.6970  135.5852  156.6431 N.am    1  UNL1       -0.2729
     11 C         143.4194  134.5379  157.4375 C.3     1  UNL1        0.1108
     12 C         143.1348  133.0849  157.1969 C.3     1  UNL1        0.0907
     13 N         142.1277  132.6793  156.1618 N.3     1  UNL1       -0.2884
     14 C         141.4053  133.7266  155.3674 C.3     1  UNL1        0.1552
     15 C         141.6899  135.1796  155.6081 C.2     1  UNL1        0.2420
     16 O         140.9674  136.2270  154.8137 O.2     1  UNL1       -0.2734
     17 H         141.4149  132.1312  156.6434 H       1  UNL1        0.1237
     18 C         139.5964  140.8161  163.5185 C.3     1  UNL1        0.0570
     19 C         139.2865  140.0084  166.0476 C.ar    1  UNL1        0.0782
     20 N         140.0506  140.2016  167.3239 N.ar    1  UNL1       -0.1687
     21 N         141.2472  141.0547  167.0232 N.ar    1  UNL1       -0.2168
     22 C         142.3559  141.5704  167.8919 C.ar    1  UNL1        0.0636
     23 C         142.3804  141.2364  169.3540 C.3     1  UNL1        0.0522
     24 C         143.4402  142.4202  167.2984 C.ar    1  UNL1        0.0296
     25 C         143.4157  142.7542  165.8363 C.ar    1  UNL1        0.0622
     26 C         144.5000  143.6041  165.2428 C.3     1  UNL1        0.0522
     27 N         142.3069  142.2385  164.9676 N.ar    1  UNL1       -0.2311
     28 C         141.2227  141.3887  165.5611 C.ar    1  UNL1        0.1604
     29 C         140.0110  140.7420  164.9581 C.ar    1  UNL1        0.0332
     30 C         137.5783  138.2841  166.9744 C.3     1  UNL1        0.0067
     31 C         138.0204  139.2200  165.8887 C.3     1  UNL1        0.0474
@<TRIPOS>BOND
     1    30    31    1
     2    31    19    1
     3    19    20   ar
     4    20    21   ar
     5    21    22   ar
     6    22    23    1
     7    22    24   ar
     8    24    25   ar
     9    25    26    1
    10    25    27   ar
    11    27    28   ar
    12    28    29   ar
    13    29    18    1
    14    18     1    1
    15     1     2   ar
    16     2     3   ar
    17     3     4   ar
    18     4     7    1
    19     7     8    2
    20     8     9    1
    21     9    10    1
    22    10    11    1
    23    11    12    1
    24    12    13    1
    25    13    14    1
    26    14    15    1
    27    15    16    2
    28     4     5   ar
    29     5     6   ar
    30    29    19   ar
    31     6     1   ar
    32    28    21   ar
    33    15    10   am
    34    13    17    1
@<TRIPOS>MOLECULE
*****
 31 34 0 0 0
SMALL
GASTEIGER

@<TRIPOS>ATOM
      1 C         139.8900  143.8646  165.0239 C.ar    1  UNL1       -0.0176
      2 C         138.6146  144.0754  164.2630 C.ar    1  UNL1       -0.0039
      3 C         138.6443  144.7416  162.9194 C.ar    1  UNL1       -0.0003
      4 C         139.9494  145.1969  162.3367 C.ar    1  UNL1       -0.0003
      5 C         141.2247  144.9860  163.0976 C.ar    1  UNL1       -0.0003
      6 C         141.1950  144.3199  164.4412 C.ar    1  UNL1       -0.0039
      7 C         139.9790  145.8631  160.9931 C.2     1  UNL1       -0.0029
      8 C         140.5132  145.1249  159.8015 C.2     1  UNL1       -0.0047
      9 C         140.5428  145.7912  158.4579 C.3     1  UNL1        0.1200
     10 N         139.8528  145.1529  157.2890 N.am    1  UNL1       -0.2729
     11 C         139.8462  143.6597  157.1458 C.3     1  UNL1        0.1108
     12 C         139.1562  143.0214  155.9769 C.3     1  UNL1        0.0907
     13 N         138.4728  143.8763  154.9510 N.3     1  UNL1       -0.2884
     14 C         138.4794  145.3694  155.0941 C.3     1  UNL1        0.1552
     15 C         139.1695  146.0077  156.2632 C.2     1  UNL1        0.2420
     16 O         139.1761  147.5008  156.4063 O.2     1  UNL1       -0.2734
     17 H         137.4949  143.5868  154.9306 H       1  UNL1        0.1237
     18 C         139.8603  143.1983  166.3676 C.3     1  UNL1        0.0570
     19 C         141.6368  141.9815  167.9513 C.ar    1  UNL1        0.0782
     20 N         142.4855  140.7494  167.8428 N.ar    1  UNL1       -0.1687
     21 N         142.2140  140.1154  166.5108 N.ar    1  UNL1       -0.2168
     22 C         142.7610  138.8815  165.8564 C.ar    1  UNL1        0.0636
     23 C         143.7775  138.0413  166.5712 C.3     1  UNL1        0.0522
     24 C         142.2916  138.4879  164.4872 C.ar    1  UNL1        0.0296
     25 C         141.2752  139.3281  163.7725 C.ar    1  UNL1        0.0622
     26 C         140.8058  138.9344  162.4032 C.3     1  UNL1        0.0522
     27 N         140.7282  140.5619  164.4269 N.ar    1  UNL1       -0.2311
     28 C         141.1976  140.9556  165.7961 C.ar    1  UNL1        0.1604
     29 C         140.8409  142.1089  166.6864 C.ar    1  UNL1        0.0332
     30 C         142.6839  142.8922  170.1478 C.3     1  UNL1        0.0067
     31 C         141.5920  142.9212  169.1197 C.3     1  UNL1        0.0474
@<TRIPOS>BOND
     1    30    31    1
     2    31    19    1
     3    19    20   ar
     4    20    21   ar
     5    21    22   ar
     6    22    23    1
     7    22    24   ar
     8    24    25   ar
     9    25    26    1
    10    25    27   ar
    11    27    28   ar
    12    28    29   ar
    13    29    18    1
    14    18     1    1
    15     1     2   ar
    16     2     3   ar
    17     3     4   ar
    18     4     7    1
    19     7     8    2
    20     8     9    1
    21     9    10    1
    22    10    11    1
    23    11    12    1
    24    12    13    1
    25    13    14    1
    26    14    15    1
    27    15    16    2
    28     4     5   ar
    29     5     6   ar
    30    29    19   ar
    31     6     1   ar
    32    28    21   ar
    33    15    10   am
    34    13    17    1
@<TRIPOS>MOLECULE
*****
 31 34 0 0 0
SMALL
GASTEIGER

@<TRIPOS>ATOM
      1 C         141.0446  144.4783  162.1767 C.ar    1  UNL1       -0.0176
      2 C         142.2944  143.6526  162.0969 C.ar    1  UNL1       -0.0039
      3 C         142.8429  143.0010  163.3316 C.ar    1  UNL1       -0.0003
      4 C         142.1417  143.1752  164.6461 C.ar    1  UNL1       -0.0003
      5 C         140.8920  144.0009  164.7260 C.ar    1  UNL1       -0.0003
      6 C         140.3435  144.6524  163.4913 C.ar    1  UNL1       -0.0039
      7 C         142.6903  142.5236  165.8808 C.2     1  UNL1       -0.0029
      8 C         142.1481  141.2008  166.3350 C.2     1  UNL1       -0.0047
      9 C         142.6968  140.5493  167.5696 C.3     1  UNL1        0.1200
     10 N         142.0332  140.7767  168.8955 N.am    1  UNL1       -0.2729
     11 C         140.8608  139.9339  169.3018 C.3     1  UNL1        0.1108
     12 C         140.1972  140.1613  170.6277 C.3     1  UNL1        0.0907
     13 N         140.7062  141.2316  171.5474 N.3     1  UNL1       -0.2884
     14 C         141.8786  142.0743  171.1411 C.3     1  UNL1        0.1552
     15 C         142.5421  141.8468  169.8152 C.2     1  UNL1        0.2420
     16 O         143.7146  142.6896  169.4089 O.2     1  UNL1       -0.2734
     17 H         140.9628  140.7716  172.4209 H       1  UNL1        0.1237
     18 C         140.4960  145.1299  160.9420 C.3     1  UNL1        0.0570
     19 C         140.0337  144.6198  158.3591 C.ar    1  UNL1        0.0782
     20 N         139.3880  143.4999  157.5982 N.ar    1  UNL1       -0.1687
     21 N         138.9233  142.4739  158.5888 N.ar    1  UNL1       -0.2168
     22 C         138.2200  141.1601  158.4178 C.ar    1  UNL1        0.0636
     23 C         137.8615  140.6744  157.0446 C.3     1  UNL1        0.0522
     24 C         137.8752  140.3320  159.6200 C.ar    1  UNL1        0.0296
     25 C         138.2337  140.8177  160.9932 C.ar    1  UNL1        0.0622
     26 C         137.8889  139.9895  162.1954 C.3     1  UNL1        0.0522
     27 N         138.9370  142.1315  161.1641 N.ar    1  UNL1       -0.2311
     28 C         139.2818  142.9596  159.9619 C.ar    1  UNL1        0.1604
     29 C         139.9681  144.2858  159.8200 C.ar    1  UNL1        0.0332
     30 C         142.1250  145.9528  157.5847 C.3     1  UNL1        0.0067
     31 C         140.6389  145.8564  157.7637 C.3     1  UNL1        0.0474
@<TRIPOS>BOND
     1    30    31    1
     2    31    19    1
     3    19    20   ar
     4    20    21   ar
     5    21    22   ar
     6    22    23    1
     7    22    24   ar
     8    24    25   ar
     9    25    26    1
    10    25    27   ar
    11    27    28   ar
    12    28    29   ar
    13    29    18    1
    14    18     1    1
    15     1     2   ar
    16     2     3   ar
    17     3     4   ar
    18     4     7    1
    19     7     8    2
    20     8     9    1
    21     9    10    1
    22    10    11    1
    23    11    12    1
    24    12    13    1
    25    13    14    1
    26    14    15    1
    27    15    16    2
    28     4     5   ar
    29     5     6   ar
    30    29    19   ar
    31     6     1   ar
    32    28    21   ar
    33    15    10   am
    34    13    17    1
