@<TRIPOS>MOLECULE
*****
 28 30 0 0 0
SMALL
GASTEIGER

@<TRIPOS>ATOM
      1 C         142.6255  139.8766  167.0321 C.2     1  UNL1        0.2267
      2 O         143.7148  139.0608  166.4014 O.2     1  UNL1       -0.2748
      3 N         141.3712  140.1738  166.2650 N.am    1  UNL1       -0.2695
      4 C         141.0657  139.7251  164.8667 C.3     1  UNL1        0.1205
      5 C         139.7079  140.2458  164.4990 C.2     1  UNL1       -0.0024
      6 C         139.1742  141.0163  165.6701 C.2     1  UNL1       -0.0047
      7 C         140.2022  140.9718  166.7615 C.3     1  UNL1        0.1202
      8 C         139.0068  140.0333  163.1900 C.ar    1  UNL1        0.0271
      9 C         138.8793  141.1660  162.2150 C.ar    1  UNL1        0.0316
     10 C         138.1782  140.9535  160.9060 C.ar    1  UNL1        0.1403
     11 F         138.0506  142.0862  159.9310 F       1  UNL1       -0.2042
     12 C         137.6048  139.6082  160.5721 C.ar    1  UNL1        0.0319
     13 C         137.7324  138.4755  161.5471 C.ar    1  UNL1        0.0319
     14 C         138.4334  138.6881  162.8560 C.ar    1  UNL1        0.1400
     15 F         138.5611  137.5553  163.8311 F       1  UNL1       -0.2042
     16 C         140.0822  141.6128  168.1124 C.ar    1  UNL1       -0.0001
     17 C         139.5280  140.8315  169.2667 C.ar    1  UNL1       -0.0023
     18 C         139.4080  141.4724  170.6176 C.ar    1  UNL1       -0.0003
     19 C         139.8422  142.8947  170.8140 C.ar    1  UNL1       -0.0000
     20 C         140.3964  143.6760  169.6597 C.ar    1  UNL1       -0.0003
     21 C         140.5164  143.0350  168.3090 C.ar    1  UNL1       -0.0023
     22 C         143.2661  141.7097  167.8860 C.3     1  UNL1        0.0105
     23 C         142.7905  140.3953  168.4299 C.3     1  UNL1        0.0833
     24 C         142.3148  139.0808  168.9738 C.3     1  UNL1        0.0105
     25 C         142.9554  140.9140  169.8277 C.3     1  UNL1        0.0738
     26 N         143.3151  139.9732  170.9392 N.3     1  UNL1       -0.3208
     27 H         142.5492  139.3166  171.0901 H       1  UNL1        0.1189
     28 H         143.4809  140.5044  171.7940 H       1  UNL1        0.1189
@<TRIPOS>BOND
     1    22    23    1
     2    23    24    1
     3    23    25    1
     4    25    26    1
     5    23     1    1
     6     1     2    2
     7     1     3   am
     8     3     4    1
     9     4     5    1
    10     5     8    1
    11     8     9   ar
    12     9    10   ar
    13    10    11    1
    14    10    12   ar
    15    12    13   ar
    16    13    14   ar
    17    14    15    1
    18     5     6    2
    19     6     7    1
    20     7    16    1
    21    16    17   ar
    22    17    18   ar
    23    18    19   ar
    24    19    20   ar
    25    20    21   ar
    26     7     3    1
    27    21    16   ar
    28    14     8   ar
    29    26    27    1
    30    26    28    1
@<TRIPOS>MOLECULE
*****
 28 30 0 0 0
SMALL
GASTEIGER

@<TRIPOS>ATOM
      1 C         140.9783  139.8226  166.0993 C.2     1  UNL1        0.2267
      2 O         140.5342  138.6460  165.2818 O.2     1  UNL1       -0.2748
      3 N         141.1689  141.1599  165.4471 N.am    1  UNL1       -0.2695
      4 C         140.9551  141.4714  163.9954 C.3     1  UNL1        0.1205
      5 C         141.2609  142.9245  163.7832 C.2     1  UNL1       -0.0024
      6 C         141.6637  143.5111  165.1037 C.2     1  UNL1       -0.0047
      7 C         141.6068  142.4206  166.1320 C.3     1  UNL1        0.1202
      8 C         141.1784  143.6615  162.4793 C.ar    1  UNL1        0.0271
      9 C         142.0736  143.2730  161.3402 C.ar    1  UNL1        0.0316
     10 C         141.9910  144.0101  160.0364 C.ar    1  UNL1        0.1403
     11 F         142.8862  143.6216  158.8972 F       1  UNL1       -0.2042
     12 C         141.0132  145.1356  159.8718 C.ar    1  UNL1        0.0319
     13 C         140.1180  145.5241  161.0109 C.ar    1  UNL1        0.0319
     14 C         140.2006  144.7871  162.3147 C.ar    1  UNL1        0.1400
     15 F         139.3054  145.1756  163.4539 F       1  UNL1       -0.2042
     16 C         141.9310  142.5652  167.5894 C.ar    1  UNL1       -0.0001
     17 C         140.8549  142.9448  168.5630 C.ar    1  UNL1       -0.0023
     18 C         141.1790  143.0894  170.0204 C.ar    1  UNL1       -0.0003
     19 C         142.5792  142.8546  170.5041 C.ar    1  UNL1       -0.0000
     20 C         143.6554  142.4750  169.5305 C.ar    1  UNL1       -0.0003
     21 C         143.3312  142.3304  168.0732 C.ar    1  UNL1       -0.0023
     22 C         139.8024  140.0158  167.8542 C.3     1  UNL1        0.0105
     23 C         141.2318  139.6620  167.5690 C.3     1  UNL1        0.0833
     24 C         142.6613  139.3082  167.2837 C.3     1  UNL1        0.0105
     25 C         141.4853  139.5014  169.0387 C.3     1  UNL1        0.0738
     26 N         142.8047  138.9737  169.5189 N.3     1  UNL1       -0.3208
     27 H         142.9122  138.0043  169.2202 H       1  UNL1        0.1189
     28 H         142.8398  139.0216  170.5372 H       1  UNL1        0.1189
@<TRIPOS>BOND
     1    22    23    1
     2    23    24    1
     3    23    25    1
     4    25    26    1
     5    23     1    1
     6     1     2    2
     7     1     3   am
     8     3     4    1
     9     4     5    1
    10     5     8    1
    11     8     9   ar
    12     9    10   ar
    13    10    11    1
    14    10    12   ar
    15    12    13   ar
    16    13    14   ar
    17    14    15    1
    18     5     6    2
    19     6     7    1
    20     7    16    1
    21    16    17   ar
    22    17    18   ar
    23    18    19   ar
    24    19    20   ar
    25    20    21   ar
    26     7     3    1
    27    21    16   ar
    28    14     8   ar
    29    26    27    1
    30    26    28    1
@<TRIPOS>MOLECULE
*****
 28 30 0 0 0
SMALL
GASTEIGER

@<TRIPOS>ATOM
      1 C         140.8949  139.8307  166.2126 C.2     1  UNL1        0.2267
      2 O         140.4224  138.6534  165.4123 O.2     1  UNL1       -0.2748
      3 N         141.0668  141.1664  165.5520 N.am    1  UNL1       -0.2695
      4 C         140.8066  141.4755  164.1074 C.3     1  UNL1        0.1205
      5 C         141.1080  142.9276  163.8825 C.2     1  UNL1       -0.0024
      6 C         141.5544  143.5160  165.1881 C.2     1  UNL1       -0.0047
      7 C         141.5289  142.4275  166.2199 C.3     1  UNL1        0.1202
      8 C         140.9846  143.6624  162.5806 C.ar    1  UNL1        0.0271
      9 C         140.1724  144.9211  162.5038 C.ar    1  UNL1        0.0316
     10 C         140.0491  145.6558  161.2019 C.ar    1  UNL1        0.1403
     11 F         139.2369  146.9146  161.1251 F       1  UNL1       -0.2042
     12 C         140.7378  145.1317  159.9768 C.ar    1  UNL1        0.0319
     13 C         141.5500  143.8730  160.0536 C.ar    1  UNL1        0.0319
     14 C         141.6733  143.1383  161.3555 C.ar    1  UNL1        0.1400
     15 F         142.4855  141.8795  161.4323 F       1  UNL1       -0.2042
     16 C         141.9004  142.5743  167.6657 C.ar    1  UNL1       -0.0001
     17 C         140.8607  142.9737  168.6704 C.ar    1  UNL1       -0.0023
     18 C         141.2322  143.1206  170.1163 C.ar    1  UNL1       -0.0003
     19 C         142.6434  142.8679  170.5573 C.ar    1  UNL1       -0.0000
     20 C         143.6832  142.4685  169.5526 C.ar    1  UNL1       -0.0003
     21 C         143.3117  142.3217  168.1069 C.ar    1  UNL1       -0.0023
     22 C         139.7761  140.0267  168.0042 C.3     1  UNL1        0.0105
     23 C         141.1956  139.6724  167.6736 C.3     1  UNL1        0.0833
     24 C         142.6152  139.3181  167.3431 C.3     1  UNL1        0.0105
     25 C         141.4963  139.5141  169.1346 C.3     1  UNL1        0.0738
     26 N         142.8001  138.9146  169.5714 N.3     1  UNL1       -0.3208
     27 H         142.8387  137.9372  169.2823 H       1  UNL1        0.1189
     28 H         142.8776  138.9722  170.5868 H       1  UNL1        0.1189
@<TRIPOS>BOND
     1    22    23    1
     2    23    24    1
     3    23    25    1
     4    25    26    1
     5    23     1    1
     6     1     2    2
     7     1     3   am
     8     3     4    1
     9     4     5    1
    10     5     8    1
    11     8     9   ar
    12     9    10   ar
    13    10    11    1
    14    10    12   ar
    15    12    13   ar
    16    13    14   ar
    17    14    15    1
    18     5     6    2
    19     6     7    1
    20     7    16    1
    21    16    17   ar
    22    17    18   ar
    23    18    19   ar
    24    19    20   ar
    25    20    21   ar
    26     7     3    1
    27    21    16   ar
    28    14     8   ar
    29    26    27    1
    30    26    28    1
@<TRIPOS>MOLECULE
*****
 28 30 0 0 0
SMALL
GASTEIGER

@<TRIPOS>ATOM
      1 C         139.1339  143.3226  163.7073 C.2     1  UNL1        0.2267
      2 O         138.8911  144.7843  163.9405 O.2     1  UNL1       -0.2748
      3 N         139.7964  142.4939  164.7677 N.am    1  UNL1       -0.2695
      4 C         140.2684  142.9852  166.1040 C.3     1  UNL1        0.1205
      5 C         140.8669  141.8234  166.8402 C.2     1  UNL1       -0.0024
      6 C         140.7648  140.6139  165.9588 C.2     1  UNL1       -0.0047
      7 C         140.1032  141.0283  164.6780 C.3     1  UNL1        0.1202
      8 C         141.4629  141.8639  168.2162 C.ar    1  UNL1        0.0271
      9 C         142.8991  142.2555  168.4002 C.ar    1  UNL1        0.0316
     10 C         143.4950  142.2960  169.7761 C.ar    1  UNL1        0.1403
     11 F         144.9313  142.6876  169.9602 F       1  UNL1       -0.2042
     12 C         142.6547  141.9449  170.9680 C.ar    1  UNL1        0.0319
     13 C         141.2185  141.5533  170.7840 C.ar    1  UNL1        0.0319
     14 C         140.6226  141.5128  169.4081 C.ar    1  UNL1        0.1400
     15 F         139.1863  141.1212  169.2240 F       1  UNL1       -0.2042
     16 C         139.8014  140.1341  163.5121 C.ar    1  UNL1       -0.0001
     17 C         140.8045  139.9771  162.4079 C.ar    1  UNL1       -0.0023
     18 C         140.5026  139.0829  161.2420 C.ar    1  UNL1       -0.0003
     19 C         139.1978  138.3458  161.1803 C.ar    1  UNL1       -0.0000
     20 C         138.1946  138.5028  162.2845 C.ar    1  UNL1       -0.0003
     21 C         138.4965  139.3970  163.4503 C.ar    1  UNL1       -0.0023
     22 C         140.0351  143.0569  161.8055 C.3     1  UNL1        0.0105
     23 C         138.7142  142.6895  162.4138 C.3     1  UNL1        0.0833
     24 C         137.3933  142.3220  163.0222 C.3     1  UNL1        0.0105
     25 C         138.2946  142.0564  161.1203 C.3     1  UNL1        0.0738
     26 N         138.3898  142.8321  159.8400 N.3     1  UNL1       -0.3208
     27 H         137.7360  143.6145  159.8671 H       1  UNL1        0.1189
     28 H         138.1586  142.2228  159.0554 H       1  UNL1        0.1189
@<TRIPOS>BOND
     1    22    23    1
     2    23    24    1
     3    23    25    1
     4    25    26    1
     5    23     1    1
     6     1     2    2
     7     1     3   am
     8     3     4    1
     9     4     5    1
    10     5     8    1
    11     8     9   ar
    12     9    10   ar
    13    10    11    1
    14    10    12   ar
    15    12    13   ar
    16    13    14   ar
    17    14    15    1
    18     5     6    2
    19     6     7    1
    20     7    16    1
    21    16    17   ar
    22    17    18   ar
    23    18    19   ar
    24    19    20   ar
    25    20    21   ar
    26     7     3    1
    27    21    16   ar
    28    14     8   ar
    29    26    27    1
    30    26    28    1
@<TRIPOS>MOLECULE
*****
 28 30 0 0 0
SMALL
GASTEIGER

@<TRIPOS>ATOM
      1 C         144.4236  142.9252  164.7182 C.2     1  UNL1        0.2267
      2 O         145.0907  144.0724  165.4175 O.2     1  UNL1       -0.2748
      3 N         143.4686  142.0436  165.4667 N.am    1  UNL1       -0.2695
      4 C         143.0842  142.1851  166.9097 C.3     1  UNL1        0.1205
      5 C         142.1082  141.0945  167.2386 C.2     1  UNL1       -0.0024
      6 C         141.8893  140.2790  165.9989 C.2     1  UNL1       -0.0047
      7 C         142.7301  140.8655  164.9038 C.3     1  UNL1        0.1202
      8 C         141.4641  140.8606  168.5730 C.ar    1  UNL1        0.0271
      9 C         140.0033  140.5298  168.6530 C.ar    1  UNL1        0.0316
     10 C         139.3593  140.2959  169.9873 C.ar    1  UNL1        0.1403
     11 F         137.8983  139.9651  170.0674 F       1  UNL1       -0.2042
     12 C         140.1761  140.3928  171.2417 C.ar    1  UNL1        0.0319
     13 C         141.6370  140.7236  171.1617 C.ar    1  UNL1        0.0319
     14 C         142.2810  140.9575  169.8273 C.ar    1  UNL1        0.1400
     15 F         143.7419  141.2883  169.7473 F       1  UNL1       -0.2042
     16 C         142.8171  140.3623  163.4934 C.ar    1  UNL1       -0.0001
     17 C         141.8796  140.8918  162.4490 C.ar    1  UNL1       -0.0023
     18 C         141.9666  140.3886  161.0386 C.ar    1  UNL1       -0.0003
     19 C         142.9911  139.3559  160.6726 C.ar    1  UNL1       -0.0000
     20 C         143.9287  138.8264  161.7170 C.ar    1  UNL1       -0.0003
     21 C         143.8416  139.3296  163.1273 C.ar    1  UNL1       -0.0023
     22 C         145.8046  141.7101  163.6617 C.3     1  UNL1        0.0105
     23 C         144.7117  142.6598  163.2702 C.3     1  UNL1        0.0833
     24 C         143.6187  143.6096  162.8786 C.3     1  UNL1        0.0105
     25 C         144.9997  142.3943  161.8222 C.3     1  UNL1        0.0738
     26 N         144.2737  143.1648  160.7596 N.3     1  UNL1       -0.3208
     27 H         143.2825  142.9253  160.7831 H       1  UNL1        0.1189
     28 H         144.6590  142.9286  159.8452 H       1  UNL1        0.1189
@<TRIPOS>BOND
     1    22    23    1
     2    23    24    1
     3    23    25    1
     4    25    26    1
     5    23     1    1
     6     1     2    2
     7     1     3   am
     8     3     4    1
     9     4     5    1
    10     5     8    1
    11     8     9   ar
    12     9    10   ar
    13    10    11    1
    14    10    12   ar
    15    12    13   ar
    16    13    14   ar
    17    14    15    1
    18     5     6    2
    19     6     7    1
    20     7    16    1
    21    16    17   ar
    22    17    18   ar
    23    18    19   ar
    24    19    20   ar
    25    20    21   ar
    26     7     3    1
    27    21    16   ar
    28    14     8   ar
    29    26    27    1
    30    26    28    1
@<TRIPOS>MOLECULE
*****
 28 30 0 0 0
SMALL
GASTEIGER

@<TRIPOS>ATOM
      1 C         142.8165  143.9818  163.9350 C.2     1  UNL1        0.2267
      2 O         144.1486  144.6177  164.2018 O.2     1  UNL1       -0.2748
      3 N         142.1893  143.0932  164.9680 N.am    1  UNL1       -0.2695
      4 C         142.7721  142.7498  166.3068 C.3     1  UNL1        0.1205
      5 C         141.8122  141.8363  167.0097 C.2     1  UNL1       -0.0024
      6 C         140.6361  141.6151  166.1053 C.2     1  UNL1       -0.0047
      7 C         140.8692  142.3918  164.8434 C.3     1  UNL1        0.1202
      8 C         141.9960  141.2474  168.3770 C.ar    1  UNL1        0.0271
      9 C         142.3704  139.8027  168.5272 C.ar    1  UNL1        0.0316
     10 C         142.5543  139.2139  169.8945 C.ar    1  UNL1        0.1403
     11 F         142.9287  137.7691  170.0448 F       1  UNL1       -0.2042
     12 C         142.3638  140.0698  171.1115 C.ar    1  UNL1        0.0319
     13 C         141.9894  141.5145  170.9613 C.ar    1  UNL1        0.0319
     14 C         141.8055  142.1033  169.5940 C.ar    1  UNL1        0.1400
     15 F         141.4311  143.5481  169.4438 F       1  UNL1       -0.2042
     16 C         139.9445  142.4560  163.6641 C.ar    1  UNL1       -0.0001
     17 C         138.8629  143.4942  163.6147 C.ar    1  UNL1       -0.0023
     18 C         137.9382  143.5584  162.4353 C.ar    1  UNL1       -0.0003
     19 C         138.0952  142.5845  161.3054 C.ar    1  UNL1       -0.0000
     20 C         139.1768  141.5463  161.3548 C.ar    1  UNL1       -0.0003
     21 C         140.1014  141.4821  162.5341 C.ar    1  UNL1       -0.0023
     22 C         141.3995  145.4034  163.2488 C.3     1  UNL1        0.0105
     23 C         142.1116  144.2345  162.6353 C.3     1  UNL1        0.0833
     24 C         142.8238  143.0656  162.0217 C.3     1  UNL1        0.0105
     25 C         141.4067  144.4873  161.3356 C.3     1  UNL1        0.0738
     26 N         140.6268  145.7534  161.1392 N.3     1  UNL1       -0.3208
     27 H         139.8266  145.7613  161.7717 H       1  UNL1        0.1189
     28 H         140.2984  145.8043  160.1749 H       1  UNL1        0.1189
@<TRIPOS>BOND
     1    22    23    1
     2    23    24    1
     3    23    25    1
     4    25    26    1
     5    23     1    1
     6     1     2    2
     7     1     3   am
     8     3     4    1
     9     4     5    1
    10     5     8    1
    11     8     9   ar
    12     9    10   ar
    13    10    11    1
    14    10    12   ar
    15    12    13   ar
    16    13    14   ar
    17    14    15    1
    18     5     6    2
    19     6     7    1
    20     7    16    1
    21    16    17   ar
    22    17    18   ar
    23    18    19   ar
    24    19    20   ar
    25    20    21   ar
    26     7     3    1
    27    21    16   ar
    28    14     8   ar
    29    26    27    1
    30    26    28    1
@<TRIPOS>MOLECULE
*****
 28 30 0 0 0
SMALL
GASTEIGER

@<TRIPOS>ATOM
      1 C         138.7551  140.7864  163.5314 C.2     1  UNL1        0.2267
      2 O         138.1005  139.4415  163.6437 O.2     1  UNL1       -0.2748
      3 N         139.5349  141.3398  164.6870 N.am    1  UNL1       -0.2695
      4 C         139.7461  140.6672  166.0110 C.3     1  UNL1        0.1205
      5 C         140.5822  141.5747  166.8639 C.2     1  UNL1       -0.0024
      6 C         140.8878  142.8082  166.0670 C.2     1  UNL1       -0.0047
      7 C         140.2406  142.6631  164.7216 C.3     1  UNL1        0.1202
      8 C         141.0335  141.2974  168.2673 C.ar    1  UNL1        0.0271
      9 C         141.6192  139.9614  168.6166 C.ar    1  UNL1        0.0316
     10 C         142.0705  139.6841  170.0199 C.ar    1  UNL1        0.1403
     11 F         142.6562  138.3480  170.3692 F       1  UNL1       -0.2042
     12 C         141.9361  140.7428  171.0740 C.ar    1  UNL1        0.0319
     13 C         141.3504  142.0788  170.7247 C.ar    1  UNL1        0.0319
     14 C         140.8991  142.3561  169.3214 C.ar    1  UNL1        0.1400
     15 F         140.3134  143.6921  168.9721 F       1  UNL1       -0.2042
     16 C         140.2902  143.6652  163.6066 C.ar    1  UNL1       -0.0001
     17 C         139.2229  144.7129  163.4917 C.ar    1  UNL1       -0.0023
     18 C         139.2725  145.7150  162.3767 C.ar    1  UNL1       -0.0003
     19 C         140.3895  145.6695  161.3766 C.ar    1  UNL1       -0.0000
     20 C         141.4569  144.6218  161.4915 C.ar    1  UNL1       -0.0003
     21 C         141.4072  143.6197  162.6065 C.ar    1  UNL1       -0.0023
     22 C         139.8640  140.9151  161.7277 C.3     1  UNL1        0.0105
     23 C         138.6298  141.5780  162.2634 C.3     1  UNL1        0.0833
     24 C         137.3955  142.2409  162.7992 C.3     1  UNL1        0.0105
     25 C         138.5045  142.3695  160.9954 C.3     1  UNL1        0.0738
     26 N         139.4159  142.0828  159.8391 N.3     1  UNL1       -0.3208
     27 H         140.3744  142.3203  160.0946 H       1  UNL1        0.1189
     28 H         139.1302  142.6408  159.0345 H       1  UNL1        0.1189
@<TRIPOS>BOND
     1    22    23    1
     2    23    24    1
     3    23    25    1
     4    25    26    1
     5    23     1    1
     6     1     2    2
     7     1     3   am
     8     3     4    1
     9     4     5    1
    10     5     8    1
    11     8     9   ar
    12     9    10   ar
    13    10    11    1
    14    10    12   ar
    15    12    13   ar
    16    13    14   ar
    17    14    15    1
    18     5     6    2
    19     6     7    1
    20     7    16    1
    21    16    17   ar
    22    17    18   ar
    23    18    19   ar
    24    19    20   ar
    25    20    21   ar
    26     7     3    1
    27    21    16   ar
    28    14     8   ar
    29    26    27    1
    30    26    28    1
@<TRIPOS>MOLECULE
*****
 28 30 0 0 0
SMALL
GASTEIGER

@<TRIPOS>ATOM
      1 C         144.3364  140.1535  164.2753 C.2     1  UNL1        0.2267
      2 O         145.2244  139.0173  164.6884 O.2     1  UNL1       -0.2748
      3 N         143.3056  140.6840  165.2271 N.am    1  UNL1       -0.2695
      4 C         143.0477  140.1823  166.6170 C.3     1  UNL1        0.1205
      5 C         141.9344  140.9976  167.2050 C.2     1  UNL1       -0.0024
      6 C         141.5042  142.0033  166.1786 C.2     1  UNL1       -0.0047
      7 C         142.3517  141.8095  164.9562 C.3     1  UNL1        0.1202
      8 C         141.3533  140.8357  168.5784 C.ar    1  UNL1        0.0271
      9 C         139.9123  140.4531  168.7427 C.ar    1  UNL1        0.0316
     10 C         139.3312  140.2912  170.1161 C.ar    1  UNL1        0.1403
     11 F         137.8901  139.9086  170.2805 F       1  UNL1       -0.2042
     12 C         140.1912  140.5119  171.3251 C.ar    1  UNL1        0.0319
     13 C         141.6322  140.8945  171.1608 C.ar    1  UNL1        0.0319
     14 C         142.2132  141.0564  169.7874 C.ar    1  UNL1        0.1400
     15 F         143.6543  141.4391  169.6231 F       1  UNL1       -0.2042
     16 C         142.2611  142.6020  163.6858 C.ar    1  UNL1       -0.0001
     17 C         143.0462  143.8713  163.5361 C.ar    1  UNL1       -0.0023
     18 C         142.9556  144.6638  162.2657 C.ar    1  UNL1       -0.0003
     19 C         142.0799  144.1869  161.1452 C.ar    1  UNL1       -0.0000
     20 C         141.2948  142.9175  161.2949 C.ar    1  UNL1       -0.0003
     21 C         141.3854  142.1252  162.5652 C.ar    1  UNL1       -0.0023
     22 C         143.4767  139.7822  162.3720 C.3     1  UNL1        0.0105
     23 C         144.4793  140.7591  162.9105 C.3     1  UNL1        0.0833
     24 C         145.4820  141.7362  163.4490 C.3     1  UNL1        0.0105
     25 C         144.6222  141.3648  161.5456 C.3     1  UNL1        0.0738
     26 N         145.5898  142.4888  161.3214 N.3     1  UNL1       -0.3208
     27 H         145.2827  143.3107  161.8416 H       1  UNL1        0.1189
     28 H         145.6285  142.7108  160.3266 H       1  UNL1        0.1189
@<TRIPOS>BOND
     1    22    23    1
     2    23    24    1
     3    23    25    1
     4    25    26    1
     5    23     1    1
     6     1     2    2
     7     1     3   am
     8     3     4    1
     9     4     5    1
    10     5     8    1
    11     8     9   ar
    12     9    10   ar
    13    10    11    1
    14    10    12   ar
    15    12    13   ar
    16    13    14   ar
    17    14    15    1
    18     5     6    2
    19     6     7    1
    20     7    16    1
    21    16    17   ar
    22    17    18   ar
    23    18    19   ar
    24    19    20   ar
    25    20    21   ar
    26     7     3    1
    27    21    16   ar
    28    14     8   ar
    29    26    27    1
    30    26    28    1
@<TRIPOS>MOLECULE
*****
 28 30 0 0 0
SMALL
GASTEIGER

@<TRIPOS>ATOM
      1 C         143.2882  140.3126  163.4891 C.2     1  UNL1        0.2267
      2 O         144.6897  140.5029  163.9886 O.2     1  UNL1       -0.2748
      3 N         142.1253  140.5749  164.3995 N.am    1  UNL1       -0.2695
      4 C         142.2079  141.0294  165.8266 C.3     1  UNL1        0.1205
      5 C         140.8093  141.1641  166.3519 C.2     1  UNL1       -0.0024
      6 C         139.8624  140.7929  165.2494 C.2     1  UNL1       -0.0047
      7 C         140.6757  140.4288  164.0428 C.3     1  UNL1        0.1202
      8 C         140.4252  141.5945  167.7366 C.ar    1  UNL1        0.0271
      9 C         140.7800  142.9694  168.2201 C.ar    1  UNL1        0.0316
     10 C         140.3959  143.3997  169.6048 C.ar    1  UNL1        0.1403
     11 F         140.7507  144.7746  170.0884 F       1  UNL1       -0.2042
     12 C         139.6569  142.4552  170.5058 C.ar    1  UNL1        0.0319
     13 C         139.3021  141.0804  170.0222 C.ar    1  UNL1        0.0319
     14 C         139.6862  140.6500  168.6376 C.ar    1  UNL1        0.1400
     15 F         139.3314  139.2751  168.1539 F       1  UNL1       -0.2042
     16 C         140.1344  139.9947  162.7129 C.ar    1  UNL1       -0.0001
     17 C         139.8836  138.5405  162.4437 C.ar    1  UNL1       -0.0023
     18 C         139.3423  138.1064  161.1138 C.ar    1  UNL1       -0.0003
     19 C         139.0519  139.1265  160.0532 C.ar    1  UNL1       -0.0000
     20 C         139.3026  140.5808  160.3224 C.ar    1  UNL1       -0.0003
     21 C         139.8439  141.0148  161.6522 C.ar    1  UNL1       -0.0023
     22 C         143.0896  138.4304  162.5311 C.3     1  UNL1        0.0105
     23 C         143.0495  139.8600  162.0790 C.3     1  UNL1        0.0833
     24 C         143.0094  141.2897  161.6269 C.3     1  UNL1        0.0105
     25 C         142.8109  139.4074  160.6690 C.3     1  UNL1        0.0738
     26 N         143.9734  139.0818  159.7788 N.3     1  UNL1       -0.3208
     27 H         144.5106  139.9297  159.5973 H       1  UNL1        0.1189
     28 H         143.6303  138.7013  158.8968 H       1  UNL1        0.1189
@<TRIPOS>BOND
     1    22    23    1
     2    23    24    1
     3    23    25    1
     4    25    26    1
     5    23     1    1
     6     1     2    2
     7     1     3   am
     8     3     4    1
     9     4     5    1
    10     5     8    1
    11     8     9   ar
    12     9    10   ar
    13    10    11    1
    14    10    12   ar
    15    12    13   ar
    16    13    14   ar
    17    14    15    1
    18     5     6    2
    19     6     7    1
    20     7    16    1
    21    16    17   ar
    22    17    18   ar
    23    18    19   ar
    24    19    20   ar
    25    20    21   ar
    26     7     3    1
    27    21    16   ar
    28    14     8   ar
    29    26    27    1
    30    26    28    1
