@<TRIPOS>MOLECULE
*****
 21 23 0 0 0
SMALL
GASTEIGER

@<TRIPOS>ATOM
      1 O         137.9085  139.4337  170.9574 O.2     1  UNL1       -0.2524
      2 C         138.7604  140.1581  169.9576 C.2     1  UNL1        0.3072
      3 N         139.4204  141.4894  170.1618 N.am    1  UNL1       -0.2378
      4 C         140.1698  141.8325  168.9085 C.2     1  UNL1        0.2531
      5 O         140.9747  143.0765  168.6750 O.2     1  UNL1       -0.2722
      6 C         139.9728  140.7131  167.9297 C.3     1  UNL1        0.1657
      7 N         139.1018  139.6782  168.5780 N.am    1  UNL1       -0.2777
      8 H         139.3706  142.0413  170.9756 H       1  UNL1        0.1591
      9 H         138.8061  138.8326  168.1698 H       1  UNL1        0.1519
     10 C         139.9573  139.7687  166.7643 C.ar    1  UNL1        0.0059
     11 C         141.2393  139.1680  166.2686 C.ar    1  UNL1       -0.0020
     12 C         141.2237  138.2237  165.1033 C.ar    1  UNL1       -0.0002
     13 C         139.9262  137.8802  164.4336 C.ar    1  UNL1       -0.0000
     14 C         138.6443  138.4809  164.9293 C.ar    1  UNL1       -0.0002
     15 C         138.6598  139.4251  166.0946 C.ar    1  UNL1       -0.0020
     16 C         140.8406  141.5505  167.0377 C.ar    1  UNL1        0.0059
     17 C         142.3336  141.4818  167.1646 C.ar    1  UNL1       -0.0020
     18 C         143.2015  142.3193  166.2726 C.ar    1  UNL1       -0.0002
     19 C         142.5763  143.2253  165.2536 C.ar    1  UNL1       -0.0000
     20 C         141.0833  143.2939  165.1267 C.ar    1  UNL1       -0.0002
     21 C         140.2154  142.4565  166.0187 C.ar    1  UNL1       -0.0020
@<TRIPOS>BOND
     1     1     2    2
     2     2     3   am
     3     3     4   am
     4     4     5    2
     5     4     6    1
     6     6    10    1
     7    10    11   ar
     8    11    12   ar
     9    12    13   ar
    10    13    14   ar
    11    14    15   ar
    12     6    16    1
    13    16    17   ar
    14    17    18   ar
    15    18    19   ar
    16    19    20   ar
    17    20    21   ar
    18     6     7    1
    19     7     2   am
    20    15    10   ar
    21    21    16   ar
    22     3     8    1
    23     7     9    1
@<TRIPOS>MOLECULE
*****
 21 23 0 0 0
SMALL
GASTEIGER

@<TRIPOS>ATOM
      1 O         138.3609  143.7192  163.8170 O.2     1  UNL1       -0.2524
      2 C         139.0303  142.9739  164.9334 C.2     1  UNL1        0.3072
      3 N         139.9639  143.5608  165.9501 N.am    1  UNL1       -0.2378
      4 C         140.3942  142.4605  166.8742 C.2     1  UNL1        0.2531
      5 O         141.3283  142.6023  168.0393 O.2     1  UNL1       -0.2722
      6 C         139.7265  141.1933  166.4286 C.3     1  UNL1        0.1657
      7 N         138.8836  141.5106  165.2291 N.am    1  UNL1       -0.2777
      8 H         140.2449  144.5030  166.0019 H       1  UNL1        0.1591
      9 H         138.3310  140.8708  164.7245 H       1  UNL1        0.1519
     10 C         139.2126  139.7989  166.2248 C.ar    1  UNL1        0.0059
     11 C         138.1134  139.2697  167.0975 C.ar    1  UNL1       -0.0020
     12 C         137.5995  137.8753  166.8937 C.ar    1  UNL1       -0.0002
     13 C         138.1849  137.0101  165.8173 C.ar    1  UNL1       -0.0000
     14 C         139.2841  137.5393  164.9446 C.ar    1  UNL1       -0.0002
     15 C         139.7980  138.9336  165.1484 C.ar    1  UNL1       -0.0020
     16 C         140.4620  140.5845  167.5854 C.ar    1  UNL1        0.0059
     17 C         139.8397  140.5783  168.9502 C.ar    1  UNL1       -0.0020
     18 C         140.5753  139.9694  170.1072 C.ar    1  UNL1       -0.0002
     19 C         141.9331  139.3668  169.8992 C.ar    1  UNL1       -0.0000
     20 C         142.5554  139.3731  168.5344 C.ar    1  UNL1       -0.0002
     21 C         141.8199  139.9819  167.3775 C.ar    1  UNL1       -0.0020
@<TRIPOS>BOND
     1     1     2    2
     2     2     3   am
     3     3     4   am
     4     4     5    2
     5     4     6    1
     6     6    10    1
     7    10    11   ar
     8    11    12   ar
     9    12    13   ar
    10    13    14   ar
    11    14    15   ar
    12     6    16    1
    13    16    17   ar
    14    17    18   ar
    15    18    19   ar
    16    19    20   ar
    17    20    21   ar
    18     6     7    1
    19     7     2   am
    20    15    10   ar
    21    21    16   ar
    22     3     8    1
    23     7     9    1
@<TRIPOS>MOLECULE
*****
 21 23 0 0 0
SMALL
GASTEIGER

@<TRIPOS>ATOM
      1 O         139.4053  143.2238  171.4658 O.2     1  UNL1       -0.2524
      2 C         140.2656  142.8030  170.3113 C.2     1  UNL1        0.3072
      3 N         141.7285  143.0926  170.1503 N.am    1  UNL1       -0.2378
      4 C         142.1811  142.4873  168.8546 C.2     1  UNL1        0.2531
      5 O         143.5726  142.5370  168.2967 O.2     1  UNL1       -0.2722
      6 C         140.9978  141.8236  168.2148 C.3     1  UNL1        0.1657
      7 N         139.8140  142.0187  169.1151 N.am    1  UNL1       -0.2777
      8 H         142.2926  143.5922  170.7838 H       1  UNL1        0.1591
      9 H         138.9009  141.6898  168.9498 H       1  UNL1        0.1519
     10 C         140.0193  141.0869  167.3489 C.ar    1  UNL1        0.0059
     11 C         139.6413  141.6395  166.0066 C.ar    1  UNL1       -0.0020
     12 C         138.6628  140.9028  165.1408 C.ar    1  UNL1       -0.0002
     13 C         138.0623  139.6135  165.6172 C.ar    1  UNL1       -0.0000
     14 C         138.4403  139.0608  166.9594 C.ar    1  UNL1       -0.0002
     15 C         139.4188  139.7975  167.8252 C.ar    1  UNL1       -0.0020
     16 C         141.9770  141.4745  167.1335 C.ar    1  UNL1        0.0059
     17 C         142.5722  140.0988  167.0763 C.ar    1  UNL1       -0.0020
     18 C         143.5515  139.7496  165.9950 C.ar    1  UNL1       -0.0002
     19 C         143.9356  140.7762  164.9709 C.ar    1  UNL1       -0.0000
     20 C         143.3404  142.1518  165.0281 C.ar    1  UNL1       -0.0002
     21 C         142.3611  142.5010  166.1094 C.ar    1  UNL1       -0.0020
@<TRIPOS>BOND
     1     1     2    2
     2     2     3   am
     3     3     4   am
     4     4     5    2
     5     4     6    1
     6     6    10    1
     7    10    11   ar
     8    11    12   ar
     9    12    13   ar
    10    13    14   ar
    11    14    15   ar
    12     6    16    1
    13    16    17   ar
    14    17    18   ar
    15    18    19   ar
    16    19    20   ar
    17    20    21   ar
    18     6     7    1
    19     7     2   am
    20    15    10   ar
    21    21    16   ar
    22     3     8    1
    23     7     9    1
@<TRIPOS>MOLECULE
*****
 21 23 0 0 0
SMALL
GASTEIGER

@<TRIPOS>ATOM
      1 O         140.0909  142.7324  171.3963 O.2     1  UNL1       -0.2524
      2 C         139.9252  141.9338  170.1374 C.2     1  UNL1        0.3072
      3 N         139.0670  140.7146  169.9732 N.am    1  UNL1       -0.2378
      4 C         139.2000  140.2415  168.5560 C.2     1  UNL1        0.2531
      5 O         138.5132  139.0507  167.9559 O.2     1  UNL1       -0.2722
      6 C         140.1405  141.1683  167.8443 C.3     1  UNL1        0.1657
      7 N         140.5887  142.2142  168.8216 N.am    1  UNL1       -0.2777
      8 H         138.5136  140.2981  170.6727 H       1  UNL1        0.1591
      9 H         141.2094  142.9547  168.6327 H       1  UNL1        0.1519
     10 C         141.0260  141.9088  166.8863 C.ar    1  UNL1        0.0059
     11 C         142.5151  141.7457  166.9623 C.ar    1  UNL1       -0.0020
     12 C         143.4005  142.4862  166.0044 C.ar    1  UNL1       -0.0002
     13 C         142.7968  143.3898  164.9705 C.ar    1  UNL1       -0.0000
     14 C         141.3077  143.5530  164.8945 C.ar    1  UNL1       -0.0002
     15 C         140.4223  142.8125  165.8524 C.ar    1  UNL1       -0.0020
     16 C         139.8774  140.2772  166.6667 C.ar    1  UNL1        0.0059
     17 C         138.6459  140.4784  165.8343 C.ar    1  UNL1       -0.0020
     18 C         138.3828  139.5873  164.6566 C.ar    1  UNL1       -0.0002
     19 C         139.3512  138.4951  164.3114 C.ar    1  UNL1       -0.0000
     20 C         140.5827  138.2939  165.1438 C.ar    1  UNL1       -0.0002
     21 C         140.8459  139.1850  166.3214 C.ar    1  UNL1       -0.0020
@<TRIPOS>BOND
     1     1     2    2
     2     2     3   am
     3     3     4   am
     4     4     5    2
     5     4     6    1
     6     6    10    1
     7    10    11   ar
     8    11    12   ar
     9    12    13   ar
    10    13    14   ar
    11    14    15   ar
    12     6    16    1
    13    16    17   ar
    14    17    18   ar
    15    18    19   ar
    16    19    20   ar
    17    20    21   ar
    18     6     7    1
    19     7     2   am
    20    15    10   ar
    21    21    16   ar
    22     3     8    1
    23     7     9    1
@<TRIPOS>MOLECULE
*****
 21 23 0 0 0
SMALL
GASTEIGER

@<TRIPOS>ATOM
      1 O         144.1226  137.8265  166.9768 O.2     1  UNL1       -0.2524
      2 C         143.1238  138.8297  166.4808 C.2     1  UNL1        0.3072
      3 N         142.8563  139.1718  165.0451 N.am    1  UNL1       -0.2378
      4 C         141.7844  140.2204  165.0104 C.2     1  UNL1        0.2531
      5 O         141.2085  140.8522  163.7778 O.2     1  UNL1       -0.2722
      6 C         141.3894  140.5265  166.4248 C.3     1  UNL1        0.1657
      7 N         142.2172  139.6669  167.3335 N.am    1  UNL1       -0.2777
      8 H         143.3054  138.7773  164.2629 H       1  UNL1        0.1591
      9 H         142.1733  139.6545  168.3170 H       1  UNL1        0.1519
     10 C         140.7954  141.0344  167.7051 C.ar    1  UNL1        0.0059
     11 C         139.8247  140.1848  168.4705 C.ar    1  UNL1       -0.0020
     12 C         139.2308  140.6928  169.7508 C.ar    1  UNL1       -0.0002
     13 C         139.6074  142.0504  170.2656 C.ar    1  UNL1       -0.0000
     14 C         140.5781  142.9000  169.5002 C.ar    1  UNL1       -0.0002
     15 C         141.1721  142.3920  168.2199 C.ar    1  UNL1       -0.0020
     16 C         140.4374  141.4922  165.7837 C.ar    1  UNL1        0.0059
     17 C         140.8704  142.9019  165.5095 C.ar    1  UNL1       -0.0020
     18 C         139.9183  143.8677  164.8684 C.ar    1  UNL1       -0.0002
     19 C         138.5333  143.4237  164.5015 C.ar    1  UNL1       -0.0000
     20 C         138.1003  142.0140  164.7757 C.ar    1  UNL1       -0.0002
     21 C         139.0523  141.0482  165.4168 C.ar    1  UNL1       -0.0020
@<TRIPOS>BOND
     1     1     2    2
     2     2     3   am
     3     3     4   am
     4     4     5    2
     5     4     6    1
     6     6    10    1
     7    10    11   ar
     8    11    12   ar
     9    12    13   ar
    10    13    14   ar
    11    14    15   ar
    12     6    16    1
    13    16    17   ar
    14    17    18   ar
    15    18    19   ar
    16    19    20   ar
    17    20    21   ar
    18     6     7    1
    19     7     2   am
    20    15    10   ar
    21    21    16   ar
    22     3     8    1
    23     7     9    1
@<TRIPOS>MOLECULE
*****
 21 23 0 0 0
SMALL
GASTEIGER

@<TRIPOS>ATOM
      1 O         136.7045  137.7838  167.7507 O.2     1  UNL1       -0.2524
      2 C         137.8221  138.6427  167.2375 C.2     1  UNL1        0.3072
      3 N         138.2179  138.8085  165.8002 N.am    1  UNL1       -0.2378
      4 C         139.3805  139.7548  165.7458 C.2     1  UNL1        0.2531
      5 O         140.0949  140.2033  164.5055 O.2     1  UNL1       -0.2722
      6 C         139.7031  140.1738  167.1494 C.3     1  UNL1        0.1657
      7 N         138.7400  139.4865  168.0714 N.am    1  UNL1       -0.2777
      8 H         137.7899  138.3727  165.0281 H       1  UNL1        0.1591
      9 H         138.7147  139.5739  169.0517 H       1  UNL1        0.1519
     10 C         140.2511  140.7623  168.4158 C.ar    1  UNL1        0.0059
     11 C         140.0671  142.2225  168.7052 C.ar    1  UNL1       -0.0020
     12 C         140.6151  142.8109  169.9715 C.ar    1  UNL1       -0.0002
     13 C         141.3471  141.9391  170.9482 C.ar    1  UNL1       -0.0000
     14 C         141.5311  140.4789  170.6588 C.ar    1  UNL1       -0.0002
     15 C         140.9832  139.8905  169.3925 C.ar    1  UNL1       -0.0020
     16 C         140.7808  140.9842  166.4923 C.ar    1  UNL1        0.0059
     17 C         140.4618  142.3345  165.9224 C.ar    1  UNL1       -0.0020
     18 C         141.5395  143.1449  165.2652 C.ar    1  UNL1       -0.0002
     19 C         142.9362  142.6050  165.1779 C.ar    1  UNL1       -0.0000
     20 C         143.2552  141.2546  165.7478 C.ar    1  UNL1       -0.0002
     21 C         142.1775  140.4442  166.4050 C.ar    1  UNL1       -0.0020
@<TRIPOS>BOND
     1     1     2    2
     2     2     3   am
     3     3     4   am
     4     4     5    2
     5     4     6    1
     6     6    10    1
     7    10    11   ar
     8    11    12   ar
     9    12    13   ar
    10    13    14   ar
    11    14    15   ar
    12     6    16    1
    13    16    17   ar
    14    17    18   ar
    15    18    19   ar
    16    19    20   ar
    17    20    21   ar
    18     6     7    1
    19     7     2   am
    20    15    10   ar
    21    21    16   ar
    22     3     8    1
    23     7     9    1
@<TRIPOS>MOLECULE
*****
 21 23 0 0 0
SMALL
GASTEIGER

@<TRIPOS>ATOM
      1 O         139.9173  140.6028  171.0785 O.2     1  UNL1       -0.2524
      2 C         139.6065  140.2619  169.6512 C.2     1  UNL1        0.3072
      3 N         138.3706  139.5688  169.1592 N.am    1  UNL1       -0.2378
      4 C         138.4774  139.4329  167.6692 C.2     1  UNL1        0.2531
      5 O         137.4607  138.7991  166.7666 O.2     1  UNL1       -0.2722
      6 C         139.7792  140.0421  167.2403 C.3     1  UNL1        0.1657
      7 N         140.4771  140.5545  168.4652 N.am    1  UNL1       -0.2777
      8 H         137.6210  139.2576  169.7164 H       1  UNL1        0.1591
      9 H         141.3528  141.0038  168.4869 H       1  UNL1        0.1519
     10 C         140.9881  140.5671  166.5239 C.ar    1  UNL1        0.0059
     11 C         141.0832  142.0245  166.1821 C.ar    1  UNL1       -0.0020
     12 C         142.2920  142.5494  165.4658 C.ar    1  UNL1       -0.0002
     13 C         143.4057  141.6170  165.0913 C.ar    1  UNL1       -0.0000
     14 C         143.3106  140.1596  165.4331 C.ar    1  UNL1       -0.0002
     15 C         142.1018  139.6346  166.1494 C.ar    1  UNL1       -0.0020
     16 C         139.3341  139.6394  165.8656 C.ar    1  UNL1        0.0059
     17 C         138.5689  140.6066  165.0118 C.ar    1  UNL1       -0.0020
     18 C         138.1237  140.2040  163.6370 C.ar    1  UNL1       -0.0002
     19 C         138.4438  138.8342  163.1162 C.ar    1  UNL1       -0.0000
     20 C         139.2090  137.8671  163.9700 C.ar    1  UNL1       -0.0002
     21 C         139.6542  138.2697  165.3447 C.ar    1  UNL1       -0.0020
@<TRIPOS>BOND
     1     1     2    2
     2     2     3   am
     3     3     4   am
     4     4     5    2
     5     4     6    1
     6     6    10    1
     7    10    11   ar
     8    11    12   ar
     9    12    13   ar
    10    13    14   ar
    11    14    15   ar
    12     6    16    1
    13    16    17   ar
    14    17    18   ar
    15    18    19   ar
    16    19    20   ar
    17    20    21   ar
    18     6     7    1
    19     7     2   am
    20    15    10   ar
    21    21    16   ar
    22     3     8    1
    23     7     9    1
@<TRIPOS>MOLECULE
*****
 21 23 0 0 0
SMALL
GASTEIGER

@<TRIPOS>ATOM
      1 O         143.5778  139.3203  171.0275 O.2     1  UNL1       -0.2524
      2 C         142.6036  139.5776  169.9163 C.2     1  UNL1        0.3072
      3 N         141.1135  139.6778  170.0556 N.am    1  UNL1       -0.2378
      4 C         140.5375  139.9420  168.6961 C.2     1  UNL1        0.2531
      5 O         139.0827  140.1130  168.3730 O.2     1  UNL1       -0.2722
      6 C         141.6716  140.0052  167.7165 C.3     1  UNL1        0.1657
      7 N         142.9485  139.7800  168.4706 N.am    1  UNL1       -0.2777
      8 H         140.6031  139.5861  170.8925 H       1  UNL1        0.1591
      9 H         143.8541  139.7672  168.0844 H       1  UNL1        0.1519
     10 C         142.5784  140.1205  166.5272 C.ar    1  UNL1        0.0059
     11 C         143.0347  138.8850  165.8093 C.ar    1  UNL1       -0.0020
     12 C         143.9415  139.0003  164.6201 C.ar    1  UNL1       -0.0002
     13 C         144.3920  140.3512  164.1486 C.ar    1  UNL1       -0.0000
     14 C         143.9357  141.5867  164.8665 C.ar    1  UNL1       -0.0002
     15 C         143.0289  141.4713  166.0557 C.ar    1  UNL1       -0.0020
     16 C         140.5842  140.2545  166.7138 C.ar    1  UNL1        0.0059
     17 C         140.1470  141.6578  166.4150 C.ar    1  UNL1       -0.0020
     18 C         139.0596  141.9072  165.4122 C.ar    1  UNL1       -0.0002
     19 C         138.4095  140.7531  164.7082 C.ar    1  UNL1       -0.0000
     20 C         138.8468  139.3498  165.0070 C.ar    1  UNL1       -0.0002
     21 C         139.9342  139.1004  166.0098 C.ar    1  UNL1       -0.0020
@<TRIPOS>BOND
     1     1     2    2
     2     2     3   am
     3     3     4   am
     4     4     5    2
     5     4     6    1
     6     6    10    1
     7    10    11   ar
     8    11    12   ar
     9    12    13   ar
    10    13    14   ar
    11    14    15   ar
    12     6    16    1
    13    16    17   ar
    14    17    18   ar
    15    18    19   ar
    16    19    20   ar
    17    20    21   ar
    18     6     7    1
    19     7     2   am
    20    15    10   ar
    21    21    16   ar
    22     3     8    1
    23     7     9    1
@<TRIPOS>MOLECULE
*****
 21 23 0 0 0
SMALL
GASTEIGER

@<TRIPOS>ATOM
      1 O         138.3240  139.8239  170.6957 O.2     1  UNL1       -0.2524
      2 C         139.4133  139.8860  169.6663 C.2     1  UNL1        0.3072
      3 N         140.8865  139.9369  169.9434 N.am    1  UNL1       -0.2378
      4 C         141.6043  139.9904  168.6274 C.2     1  UNL1        0.2531
      5 O         143.0907  140.0511  168.4356 O.2     1  UNL1       -0.2722
      6 C         140.5746  139.9726  167.5368 C.3     1  UNL1        0.1657
      7 N         139.2205  139.9081  168.1788 N.am    1  UNL1       -0.2777
      8 H         141.3083  139.9354  170.8330 H       1  UNL1        0.1591
      9 H         138.3568  139.8843  167.7069 H       1  UNL1        0.1519
     10 C         139.7938  139.9681  166.2560 C.ar    1  UNL1        0.0059
     11 C         139.2570  141.2538  165.7003 C.ar    1  UNL1       -0.0020
     12 C         138.4764  141.2492  164.4195 C.ar    1  UNL1       -0.0002
     13 C         138.2325  139.9589  163.6944 C.ar    1  UNL1       -0.0000
     14 C         138.7693  138.6733  164.2501 C.ar    1  UNL1       -0.0002
     15 C         139.5499  138.6778  165.5309 C.ar    1  UNL1       -0.0020
     16 C         141.7654  140.0362  166.6270 C.ar    1  UNL1        0.0059
     17 C         142.4316  138.7709  166.1740 C.ar    1  UNL1       -0.0020
     18 C         143.6225  138.8345  165.2642 C.ar    1  UNL1       -0.0002
     19 C         144.1473  140.1634  164.8074 C.ar    1  UNL1       -0.0000
     20 C         143.4811  141.4287  165.2604 C.ar    1  UNL1       -0.0002
     21 C         142.2902  141.3651  166.1702 C.ar    1  UNL1       -0.0020
@<TRIPOS>BOND
     1     1     2    2
     2     2     3   am
     3     3     4   am
     4     4     5    2
     5     4     6    1
     6     6    10    1
     7    10    11   ar
     8    11    12   ar
     9    12    13   ar
    10    13    14   ar
    11    14    15   ar
    12     6    16    1
    13    16    17   ar
    14    17    18   ar
    15    18    19   ar
    16    19    20   ar
    17    20    21   ar
    18     6     7    1
    19     7     2   am
    20    15    10   ar
    21    21    16   ar
    22     3     8    1
    23     7     9    1
