@<TRIPOS>MOLECULE
*****
 30 33 0 0 0
SMALL
GASTEIGER

@<TRIPOS>ATOM
      1 C         142.3261  139.9702  166.8560 C.ar    1  UNL1       -0.0207
      2 C         141.2317  139.3941  166.0073 C.ar    1  UNL1       -0.0027
      3 C         140.8493  140.0635  164.7206 C.ar    1  UNL1        0.0188
      4 C         141.5613  141.3090  164.2826 C.ar    1  UNL1        0.0812
      5 N         141.1788  141.9784  162.9958 N.ar    1  UNL1       -0.2452
      6 C         141.8908  143.2238  162.5578 C.ar    1  UNL1        0.0856
      7 C         142.9853  143.7999  163.4066 C.ar    1  UNL1        0.0193
      8 C         143.3677  143.1306  164.6933 C.ar    1  UNL1        0.0030
      9 C         142.6557  141.8851  165.1313 C.ar    1  UNL1        0.0174
     10 C         143.0381  141.2157  166.4180 C.ar    1  UNL1       -0.0027
     11 C         141.5084  143.8932  161.2711 C.ar    1  UNL1        0.0730
     12 C         142.3222  143.6588  160.0330 C.ar    1  UNL1        0.1380
     13 O         143.5184  142.7551  160.0816 O.3     1  UNL1       -0.5054
     14 C         141.9399  144.3282  158.7462 C.ar    1  UNL1        0.0573
     15 C         140.7437  145.2320  158.6976 C.ar    1  UNL1        0.1019
     16 N         139.9299  145.4664  159.9356 N.ar    1  UNL1       -0.2396
     17 C         140.3123  144.7970  161.2224 C.ar    1  UNL1        0.1570
     18 H         143.7573  142.3369  160.8854 H       1  UNL1        0.2922
     19 C         139.4985  145.0314  162.4604 C.3     1  UNL1        0.4350
     20 F         138.6847  145.2658  163.6985 F       1  UNL1       -0.1644
     21 F         138.5884  143.9028  162.0759 F       1  UNL1       -0.1644
     22 F         140.4086  146.1599  162.8450 F       1  UNL1       -0.1644
     23 C         142.7085  139.3009  168.1428 C.3     1  UNL1        0.0437
     24 C         141.9958  139.6564  169.4139 C.3     1  UNL1        0.0768
     25 C         143.8897  142.2709  169.8898 C.3     1  UNL1        0.0173
     26 C         142.3901  142.2627  169.8579 C.3     1  UNL1        0.0576
     27 C         141.4978  143.4547  170.0391 C.3     1  UNL1        0.0174
     28 C         140.0757  142.9896  169.9323 C.3     1  UNL1        0.0187
     29 C         140.0892  141.5101  169.6851 C.3     1  UNL1        0.0721
     30 N         141.5196  141.0609  169.6391 N.3     1  UNL1       -0.2737
@<TRIPOS>BOND
     1    26    25    1
     2    26    27    1
     3    27    28    1
     4    28    29    1
     5    29    30    1
     6    30    24    1
     7    24    23    1
     8    23     1    1
     9     1     2   ar
    10     2     3   ar
    11     3     4   ar
    12     4     5   ar
    13     5     6   ar
    14     6    11    1
    15    11    12   ar
    16    12    13    1
    17    12    14   ar
    18    14    15   ar
    19    15    16   ar
    20    16    17   ar
    21    17    19    1
    22    19    20    1
    23    19    21    1
    24    19    22    1
    25     6     7   ar
    26     7     8   ar
    27     8     9   ar
    28     9    10   ar
    29    30    26    1
    30    10     1   ar
    31     9     4   ar
    32    17    11   ar
    33    13    18    1
@<TRIPOS>MOLECULE
*****
 30 33 0 0 0
SMALL
GASTEIGER

@<TRIPOS>ATOM
      1 C         141.8790  139.5868  168.1174 C.ar    1  UNL1       -0.0207
      2 C         142.9706  139.9889  167.1706 C.ar    1  UNL1       -0.0027
      3 C         142.6299  140.4402  165.7813 C.ar    1  UNL1        0.0188
      4 C         141.1974  140.4894  165.3389 C.ar    1  UNL1        0.0812
      5 N         140.8567  140.9408  163.9495 N.ar    1  UNL1       -0.2452
      6 C         139.4243  140.9900  163.5071 C.ar    1  UNL1        0.0856
      7 C         138.3326  140.5879  164.4540 C.ar    1  UNL1        0.0193
      8 C         138.6734  140.1365  165.8433 C.ar    1  UNL1        0.0030
      9 C         140.1058  140.0873  166.2857 C.ar    1  UNL1        0.0174
     10 C         140.4466  139.6360  167.6750 C.ar    1  UNL1       -0.0027
     11 C         139.0835  141.4413  162.1178 C.ar    1  UNL1        0.0730
     12 C         139.0535  140.4492  160.9931 C.ar    1  UNL1        0.1380
     13 O         139.3643  139.0059  161.2577 O.3     1  UNL1       -0.5054
     14 C         138.7127  140.9006  159.6038 C.ar    1  UNL1        0.0573
     15 C         138.4019  142.3440  159.3392 C.ar    1  UNL1        0.1019
     16 N         138.4319  143.3360  160.4638 N.ar    1  UNL1       -0.2396
     17 C         138.7727  142.8847  161.8532 C.ar    1  UNL1        0.1570
     18 H         139.5772  138.7239  162.1256 H       1  UNL1        0.2922
     19 C         138.8026  143.8768  162.9778 C.3     1  UNL1        0.4350
     20 F         138.8325  144.8689  164.1026 F       1  UNL1       -0.1644
     21 F         140.2754  144.0695  162.7686 F       1  UNL1       -0.1644
     22 F         137.3299  143.6841  163.1871 F       1  UNL1       -0.1644
     23 C         142.2197  139.1354  169.5068 C.3     1  UNL1        0.0437
     24 C         141.9592  140.0403  170.6744 C.3     1  UNL1        0.0768
     25 C         143.8151  142.5947  169.8497 C.3     1  UNL1        0.0173
     26 C         142.3308  142.6163  170.0650 C.3     1  UNL1        0.0576
     27 C         141.4390  143.8158  169.9391 C.3     1  UNL1        0.0174
     28 C         140.0347  143.3829  170.2403 C.3     1  UNL1        0.0187
     29 C         140.0587  141.9159  170.5525 C.3     1  UNL1        0.0721
     30 N         141.4778  141.4422  170.4441 N.3     1  UNL1       -0.2737
@<TRIPOS>BOND
     1    26    25    1
     2    26    27    1
     3    27    28    1
     4    28    29    1
     5    29    30    1
     6    30    24    1
     7    24    23    1
     8    23     1    1
     9     1     2   ar
    10     2     3   ar
    11     3     4   ar
    12     4     5   ar
    13     5     6   ar
    14     6    11    1
    15    11    12   ar
    16    12    13    1
    17    12    14   ar
    18    14    15   ar
    19    15    16   ar
    20    16    17   ar
    21    17    19    1
    22    19    20    1
    23    19    21    1
    24    19    22    1
    25     6     7   ar
    26     7     8   ar
    27     8     9   ar
    28     9    10   ar
    29    30    26    1
    30    10     1   ar
    31     9     4   ar
    32    17    11   ar
    33    13    18    1
@<TRIPOS>MOLECULE
*****
 30 33 0 0 0
SMALL
GASTEIGER

@<TRIPOS>ATOM
      1 C         139.7979  140.4148  167.1547 C.ar    1  UNL1       -0.0207
      2 C         139.9291  139.3446  166.1119 C.ar    1  UNL1       -0.0027
      3 C         140.2967  139.7100  164.7043 C.ar    1  UNL1        0.0188
      4 C         140.5332  141.1456  164.3396 C.ar    1  UNL1        0.0812
      5 N         140.9009  141.5110  162.9319 N.ar    1  UNL1       -0.2452
      6 C         141.1374  142.9466  162.5671 C.ar    1  UNL1        0.0856
      7 C         141.0063  144.0169  163.6100 C.ar    1  UNL1        0.0193
      8 C         140.6386  143.6514  165.0176 C.ar    1  UNL1        0.0030
      9 C         140.4021  142.2158  165.3823 C.ar    1  UNL1        0.0174
     10 C         140.0344  141.8504  166.7899 C.ar    1  UNL1       -0.0027
     11 C         141.5051  143.3121  161.1596 C.ar    1  UNL1        0.0730
     12 C         140.4345  143.6861  160.1777 C.ar    1  UNL1        0.1380
     13 O         138.9962  143.6946  160.6035 O.3     1  UNL1       -0.5054
     14 C         140.8021  144.0515  158.7702 C.ar    1  UNL1        0.0573
     15 C         142.2404  144.0429  158.3444 C.ar    1  UNL1        0.1019
     16 N         143.3110  143.6689  159.3262 N.ar    1  UNL1       -0.2396
     17 C         142.9434  143.3035  160.7338 C.ar    1  UNL1        0.1570
     18 H         138.7665  143.4663  161.4828 H       1  UNL1        0.2922
     19 C         144.0140  142.9295  161.7155 C.3     1  UNL1        0.4350
     20 F         145.0847  142.5556  162.6974 F       1  UNL1       -0.1644
     21 F         143.9261  141.5008  161.2671 F       1  UNL1       -0.1644
     22 F         144.1019  144.3582  162.1640 F       1  UNL1       -0.1644
     23 C         139.4302  140.0494  168.5623 C.3     1  UNL1        0.0437
     24 C         140.4980  139.9270  169.6087 C.3     1  UNL1        0.0768
     25 C         139.8986  142.9840  170.5807 C.3     1  UNL1        0.0173
     26 C         141.2410  142.4212  170.2186 C.3     1  UNL1        0.0576
     27 C         142.5436  143.1647  170.2398 C.3     1  UNL1        0.0174
     28 C         143.6242  142.2191  169.8061 C.3     1  UNL1        0.0187
     29 C         142.9894  140.8911  169.5169 C.3     1  UNL1        0.0721
     30 N         141.5165  141.0161  169.7718 N.3     1  UNL1       -0.2737
@<TRIPOS>BOND
     1    26    25    1
     2    26    27    1
     3    27    28    1
     4    28    29    1
     5    29    30    1
     6    30    24    1
     7    24    23    1
     8    23     1    1
     9     1     2   ar
    10     2     3   ar
    11     3     4   ar
    12     4     5   ar
    13     5     6   ar
    14     6    11    1
    15    11    12   ar
    16    12    13    1
    17    12    14   ar
    18    14    15   ar
    19    15    16   ar
    20    16    17   ar
    21    17    19    1
    22    19    20    1
    23    19    21    1
    24    19    22    1
    25     6     7   ar
    26     7     8   ar
    27     8     9   ar
    28     9    10   ar
    29    30    26    1
    30    10     1   ar
    31     9     4   ar
    32    17    11   ar
    33    13    18    1
@<TRIPOS>MOLECULE
*****
 30 33 0 0 0
SMALL
GASTEIGER

@<TRIPOS>ATOM
      1 C         140.1718  145.1775  162.9936 C.ar    1  UNL1       -0.0207
      2 C         138.9466  144.7187  163.7273 C.ar    1  UNL1       -0.0027
      3 C         139.0799  143.8217  164.9221 C.ar    1  UNL1        0.0188
      4 C         140.4384  143.3837  165.3832 C.ar    1  UNL1        0.0812
      5 N         140.5717  142.4867  166.5782 N.ar    1  UNL1       -0.2452
      6 C         141.9301  142.0486  167.0393 C.ar    1  UNL1        0.0856
      7 C         143.1553  142.5076  166.3055 C.ar    1  UNL1        0.0193
      8 C         143.0220  143.4045  165.1107 C.ar    1  UNL1        0.0030
      9 C         141.6635  143.8425  164.6495 C.ar    1  UNL1        0.0174
     10 C         141.5302  144.7395  163.4547 C.ar    1  UNL1       -0.0027
     11 C         142.0634  141.1517  168.2341 C.ar    1  UNL1        0.0730
     12 C         142.5203  139.7335  168.0602 C.ar    1  UNL1        0.1380
     13 O         142.8438  139.2124  166.6913 O.3     1  UNL1       -0.5054
     14 C         142.6536  138.8366  169.2550 C.ar    1  UNL1        0.0573
     15 C         142.3301  139.3578  170.6239 C.ar    1  UNL1        0.1019
     16 N         141.8733  140.7758  170.7979 N.ar    1  UNL1       -0.2396
     17 C         141.7399  141.6728  169.6030 C.ar    1  UNL1        0.1570
     18 H         142.7605  139.7727  165.9449 H       1  UNL1        0.2922
     19 C         141.2831  143.0909  169.7770 C.3     1  UNL1        0.4350
     20 F         140.8263  144.5091  169.9510 F       1  UNL1       -0.1644
     21 F         139.8601  142.6557  169.5884 F       1  UNL1       -0.1644
     22 F         142.7061  143.5262  169.9656 F       1  UNL1       -0.1644
     23 C         140.0385  146.0745  161.7986 C.3     1  UNL1        0.0437
     24 C         140.0719  145.4926  160.4166 C.3     1  UNL1        0.0768
     25 C         138.5459  142.6153  160.6212 C.3     1  UNL1        0.0173
     26 C         139.9911  142.8243  160.2783 C.3     1  UNL1        0.0576
     27 C         140.9886  141.7476  159.9692 C.3     1  UNL1        0.0174
     28 C         142.3066  142.4046  159.6840 C.3     1  UNL1        0.0187
     29 C         142.1236  143.8876  159.8169 C.3     1  UNL1        0.0721
     30 N         140.6926  144.1469  160.1842 N.3     1  UNL1       -0.2737
@<TRIPOS>BOND
     1    26    25    1
     2    26    27    1
     3    27    28    1
     4    28    29    1
     5    29    30    1
     6    30    24    1
     7    24    23    1
     8    23     1    1
     9     1     2   ar
    10     2     3   ar
    11     3     4   ar
    12     4     5   ar
    13     5     6   ar
    14     6    11    1
    15    11    12   ar
    16    12    13    1
    17    12    14   ar
    18    14    15   ar
    19    15    16   ar
    20    16    17   ar
    21    17    19    1
    22    19    20    1
    23    19    21    1
    24    19    22    1
    25     6     7   ar
    26     7     8   ar
    27     8     9   ar
    28     9    10   ar
    29    30    26    1
    30    10     1   ar
    31     9     4   ar
    32    17    11   ar
    33    13    18    1
@<TRIPOS>MOLECULE
*****
 30 33 0 0 0
SMALL
GASTEIGER

@<TRIPOS>ATOM
      1 C         140.3196  145.0888  162.9635 C.ar    1  UNL1       -0.0207
      2 C         139.1542  144.6571  163.8033 C.ar    1  UNL1       -0.0027
      3 C         139.3752  143.7734  164.9951 C.ar    1  UNL1        0.0188
      4 C         140.7615  143.3216  165.3469 C.ar    1  UNL1        0.0812
      5 N         140.9825  142.4379  166.5388 N.ar    1  UNL1       -0.2452
      6 C         142.3688  141.9861  166.8907 C.ar    1  UNL1        0.0856
      7 C         143.5343  142.4179  166.0507 C.ar    1  UNL1        0.0193
      8 C         143.3133  143.3015  164.8590 C.ar    1  UNL1        0.0030
      9 C         141.9269  143.7534  164.5071 C.ar    1  UNL1        0.0174
     10 C         141.7059  144.6370  163.3153 C.ar    1  UNL1       -0.0027
     11 C         142.5898  141.1024  168.0824 C.ar    1  UNL1        0.0730
     12 C         142.7810  141.7092  169.4409 C.ar    1  UNL1        0.1380
     13 O         142.7511  143.1996  169.6075 O.3     1  UNL1       -0.5054
     14 C         143.0020  140.8256  170.6326 C.ar    1  UNL1        0.0573
     15 C         143.0318  139.3352  170.4660 C.ar    1  UNL1        0.1019
     16 N         142.8407  138.7284  169.1076 N.ar    1  UNL1       -0.2396
     17 C         142.6197  139.6120  167.9158 C.ar    1  UNL1        0.1570
     18 H         142.6131  143.7516  168.8630 H       1  UNL1        0.2922
     19 C         142.4285  139.0052  166.5574 C.3     1  UNL1        0.4350
     20 F         142.2374  138.3984  165.1990 F       1  UNL1       -0.1644
     21 F         140.9448  139.1833  166.6867 F       1  UNL1       -0.1644
     22 F         143.9123  138.8272  166.4282 F       1  UNL1       -0.1644
     23 C         140.0986  145.9725  161.7716 C.3     1  UNL1        0.0437
     24 C         140.3279  145.4381  160.3890 C.3     1  UNL1        0.0768
     25 C         142.8450  143.4377  159.8305 C.3     1  UNL1        0.0173
     26 C         141.3984  143.0435  159.8744 C.3     1  UNL1        0.0576
     27 C         140.8548  141.6606  159.6693 C.3     1  UNL1        0.0174
     28 C         139.3618  141.7253  159.7993 C.3     1  UNL1        0.0187
     29 C         138.9827  143.1484  160.0847 C.3     1  UNL1        0.0721
     30 N         140.2414  143.9629  160.1311 N.3     1  UNL1       -0.2737
@<TRIPOS>BOND
     1    26    25    1
     2    26    27    1
     3    27    28    1
     4    28    29    1
     5    29    30    1
     6    30    24    1
     7    24    23    1
     8    23     1    1
     9     1     2   ar
    10     2     3   ar
    11     3     4   ar
    12     4     5   ar
    13     5     6   ar
    14     6    11    1
    15    11    12   ar
    16    12    13    1
    17    12    14   ar
    18    14    15   ar
    19    15    16   ar
    20    16    17   ar
    21    17    19    1
    22    19    20    1
    23    19    21    1
    24    19    22    1
    25     6     7   ar
    26     7     8   ar
    27     8     9   ar
    28     9    10   ar
    29    30    26    1
    30    10     1   ar
    31     9     4   ar
    32    17    11   ar
    33    13    18    1
@<TRIPOS>MOLECULE
*****
 30 33 0 0 0
SMALL
GASTEIGER

@<TRIPOS>ATOM
      1 C         142.2320  139.9833  167.3592 C.ar    1  UNL1       -0.0207
      2 C         141.0289  139.5290  166.5872 C.ar    1  UNL1       -0.0027
      3 C         140.6363  140.2378  165.3249 C.ar    1  UNL1        0.0188
      4 C         141.4468  141.4009  164.8346 C.ar    1  UNL1        0.0812
      5 N         141.0541  142.1097  163.5722 N.ar    1  UNL1       -0.2452
      6 C         141.8646  143.2727  163.0820 C.ar    1  UNL1        0.0856
      7 C         143.0678  143.7270  163.8541 C.ar    1  UNL1        0.0193
      8 C         143.4605  143.0182  165.1163 C.ar    1  UNL1        0.0030
      9 C         142.6499  141.8551  165.6066 C.ar    1  UNL1        0.0174
     10 C         143.0426  141.1463  166.8689 C.ar    1  UNL1       -0.0027
     11 C         141.4720  143.9815  161.8197 C.ar    1  UNL1        0.0730
     12 C         140.5196  145.1391  161.8746 C.ar    1  UNL1        0.1380
     13 O         139.9599  145.5878  163.1920 O.3     1  UNL1       -0.5054
     14 C         140.1270  145.8479  160.6124 C.ar    1  UNL1        0.0573
     15 C         140.6867  145.3991  159.2950 C.ar    1  UNL1        0.1019
     16 N         141.6391  144.2416  159.2400 N.ar    1  UNL1       -0.2396
     17 C         142.0318  143.5327  160.5024 C.ar    1  UNL1        0.1570
     18 H         140.2051  145.1451  163.9805 H       1  UNL1        0.2922
     19 C         142.9841  142.3752  160.4473 C.3     1  UNL1        0.4350
     20 F         143.9366  141.2177  160.3923 F       1  UNL1       -0.1644
     21 F         141.8304  141.4349  160.2613 F       1  UNL1       -0.1644
     22 F         144.1378  143.3156  160.6334 F       1  UNL1       -0.1644
     23 C         142.6247  139.2745  168.6215 C.3     1  UNL1        0.0437
     24 C         142.2140  139.8305  169.9527 C.3     1  UNL1        0.0768
     25 C         139.0229  140.5103  169.8912 C.3     1  UNL1        0.0173
     26 C         140.1350  141.5098  170.0098 C.3     1  UNL1        0.0576
     27 C         139.9757  142.9971  170.1209 C.3     1  UNL1        0.0174
     28 C         141.3440  143.6040  170.2179 C.3     1  UNL1        0.0187
     29 C         142.3491  142.4915  170.1667 C.3     1  UNL1        0.0721
     30 N         141.6018  141.1973  170.0381 N.3     1  UNL1       -0.2737
@<TRIPOS>BOND
     1    26    25    1
     2    26    27    1
     3    27    28    1
     4    28    29    1
     5    29    30    1
     6    30    24    1
     7    24    23    1
     8    23     1    1
     9     1     2   ar
    10     2     3   ar
    11     3     4   ar
    12     4     5   ar
    13     5     6   ar
    14     6    11    1
    15    11    12   ar
    16    12    13    1
    17    12    14   ar
    18    14    15   ar
    19    15    16   ar
    20    16    17   ar
    21    17    19    1
    22    19    20    1
    23    19    21    1
    24    19    22    1
    25     6     7   ar
    26     7     8   ar
    27     8     9   ar
    28     9    10   ar
    29    30    26    1
    30    10     1   ar
    31     9     4   ar
    32    17    11   ar
    33    13    18    1
@<TRIPOS>MOLECULE
*****
 30 33 0 0 0
SMALL
GASTEIGER

@<TRIPOS>ATOM
      1 C         139.2771  139.9163  165.9347 C.ar    1  UNL1       -0.0207
      2 C         140.5794  139.6471  165.2409 C.ar    1  UNL1       -0.0027
      3 C         140.8851  140.3162  163.9337 C.ar    1  UNL1        0.0188
      4 C         139.8885  141.2545  163.3203 C.ar    1  UNL1        0.0812
      5 N         140.1942  141.9236  162.0130 N.ar    1  UNL1       -0.2452
      6 C         139.1975  142.8619  161.3996 C.ar    1  UNL1        0.0856
      7 C         137.8951  143.1310  162.0934 C.ar    1  UNL1        0.0193
      8 C         137.5894  142.4619  163.4006 C.ar    1  UNL1        0.0030
      9 C         138.5861  141.5236  164.0141 C.ar    1  UNL1        0.0174
     10 C         138.2804  140.8545  165.3212 C.ar    1  UNL1       -0.0027
     11 C         139.5032  143.5310  160.0924 C.ar    1  UNL1        0.0730
     12 C         139.1120  142.8719  158.8029 C.ar    1  UNL1        0.1380
     13 O         138.4150  141.5438  158.8207 O.3     1  UNL1       -0.5054
     14 C         139.4176  143.5411  157.4957 C.ar    1  UNL1        0.0573
     15 C         140.1146  144.8692  157.4779 C.ar    1  UNL1        0.1019
     16 N         140.5059  145.5282  158.7673 N.ar    1  UNL1       -0.2396
     17 C         140.2002  144.8591  160.0746 C.ar    1  UNL1        0.1570
     18 H         138.2240  141.1258  159.6373 H       1  UNL1        0.2922
     19 C         140.5914  145.5181  161.3640 C.3     1  UNL1        0.4350
     20 F         140.9828  146.1772  162.6534 F       1  UNL1       -0.1644
     21 F         139.2827  146.2506  161.3867 F       1  UNL1       -0.1644
     22 F         141.9002  144.7856  161.3412 F       1  UNL1       -0.1644
     23 C         138.9713  139.2471  167.2419 C.3     1  UNL1        0.0437
     24 C         139.2197  139.9718  168.5315 C.3     1  UNL1        0.0768
     25 C         140.6067  142.8109  167.7163 C.3     1  UNL1        0.0173
     26 C         141.2463  141.7147  168.5156 C.3     1  UNL1        0.0576
     27 C         142.6358  141.7309  169.0806 C.3     1  UNL1        0.0174
     28 C         142.8570  140.4358  169.8045 C.3     1  UNL1        0.0187
     29 C         141.6042  139.6192  169.6869 C.3     1  UNL1        0.0721
     30 N         140.6088  140.4097  168.8904 N.3     1  UNL1       -0.2737
@<TRIPOS>BOND
     1    26    25    1
     2    26    27    1
     3    27    28    1
     4    28    29    1
     5    29    30    1
     6    30    24    1
     7    24    23    1
     8    23     1    1
     9     1     2   ar
    10     2     3   ar
    11     3     4   ar
    12     4     5   ar
    13     5     6   ar
    14     6    11    1
    15    11    12   ar
    16    12    13    1
    17    12    14   ar
    18    14    15   ar
    19    15    16   ar
    20    16    17   ar
    21    17    19    1
    22    19    20    1
    23    19    21    1
    24    19    22    1
    25     6     7   ar
    26     7     8   ar
    27     8     9   ar
    28     9    10   ar
    29    30    26    1
    30    10     1   ar
    31     9     4   ar
    32    17    11   ar
    33    13    18    1
@<TRIPOS>MOLECULE
*****
 30 33 0 0 0
SMALL
GASTEIGER

@<TRIPOS>ATOM
      1 C         140.2463  145.1158  162.3714 C.ar    1  UNL1       -0.0207
      2 C         138.9177  145.1130  163.0675 C.ar    1  UNL1       -0.0027
      3 C         138.7717  144.4439  164.4020 C.ar    1  UNL1        0.0188
      4 C         139.9544  143.7777  165.0404 C.ar    1  UNL1        0.0812
      5 N         139.8083  143.1086  166.3750 N.ar    1  UNL1       -0.2452
      6 C         140.9910  142.4424  167.0134 C.ar    1  UNL1        0.0856
      7 C         142.3197  142.4453  166.3172 C.ar    1  UNL1        0.0193
      8 C         142.4657  143.1144  164.9826 C.ar    1  UNL1        0.0030
      9 C         141.2830  143.7806  164.3443 C.ar    1  UNL1        0.0174
     10 C         141.4290  144.4496  163.0098 C.ar    1  UNL1       -0.0027
     11 C         140.8450  141.7734  168.3479 C.ar    1  UNL1        0.0730
     12 C         140.4560  142.5787  169.5522 C.ar    1  UNL1        0.1380
     13 O         140.2131  144.0532  169.4218 O.3     1  UNL1       -0.5054
     14 C         140.3101  141.9097  170.8867 C.ar    1  UNL1        0.0573
     15 C         140.5530  140.4352  171.0171 C.ar    1  UNL1        0.1019
     16 N         140.9419  139.6299  169.8129 N.ar    1  UNL1       -0.2396
     17 C         141.0879  140.2989  168.4783 C.ar    1  UNL1        0.1570
     18 H         140.3043  144.4711  168.5881 H       1  UNL1        0.2922
     19 C         141.4769  139.4935  167.2741 C.3     1  UNL1        0.4350
     20 F         141.8658  138.6881  166.0699 F       1  UNL1       -0.1644
     21 F         142.9157  139.5629  167.6924 F       1  UNL1       -0.1644
     22 F         140.0381  139.4241  166.8558 F       1  UNL1       -0.1644
     23 C         140.3924  145.7849  161.0368 C.3     1  UNL1        0.0437
     24 C         140.1990  144.9948  159.7765 C.3     1  UNL1        0.0768
     25 C         142.2046  145.8280  157.3409 C.3     1  UNL1        0.0173
     26 C         142.2437  144.5438  158.1149 C.3     1  UNL1        0.0576
     27 C         143.2114  143.4170  157.9053 C.3     1  UNL1        0.0174
     28 C         142.8876  142.3376  158.8953 C.3     1  UNL1        0.0187
     29 C         141.7197  142.7973  159.7168 C.3     1  UNL1        0.0721
     30 N         141.3218  144.1608  159.2344 N.3     1  UNL1       -0.2737
@<TRIPOS>BOND
     1    26    25    1
     2    26    27    1
     3    27    28    1
     4    28    29    1
     5    29    30    1
     6    30    24    1
     7    24    23    1
     8    23     1    1
     9     1     2   ar
    10     2     3   ar
    11     3     4   ar
    12     4     5   ar
    13     5     6   ar
    14     6    11    1
    15    11    12   ar
    16    12    13    1
    17    12    14   ar
    18    14    15   ar
    19    15    16   ar
    20    16    17   ar
    21    17    19    1
    22    19    20    1
    23    19    21    1
    24    19    22    1
    25     6     7   ar
    26     7     8   ar
    27     8     9   ar
    28     9    10   ar
    29    30    26    1
    30    10     1   ar
    31     9     4   ar
    32    17    11   ar
    33    13    18    1
@<TRIPOS>MOLECULE
*****
 30 33 0 0 0
SMALL
GASTEIGER

@<TRIPOS>ATOM
      1 C         142.1312  139.5767  167.8012 C.ar    1  UNL1       -0.0207
      2 C         140.7573  139.9563  167.3340 C.ar    1  UNL1       -0.0027
      3 C         140.5703  140.5793  165.9824 C.ar    1  UNL1        0.0188
      4 C         141.7572  140.8229  165.0981 C.ar    1  UNL1        0.0812
      5 N         141.5702  141.4460  163.7465 N.ar    1  UNL1       -0.2452
      6 C         142.7570  141.6895  162.8622 C.ar    1  UNL1        0.0856
      7 C         144.1310  141.3099  163.3295 C.ar    1  UNL1        0.0193
      8 C         144.3180  140.6868  164.6810 C.ar    1  UNL1        0.0030
      9 C         143.1311  140.4433  165.5653 C.ar    1  UNL1        0.0174
     10 C         143.3181  139.8202  166.9169 C.ar    1  UNL1       -0.0027
     11 C         142.5701  142.3126  161.5106 C.ar    1  UNL1        0.0730
     12 C         142.4029  141.4425  160.3002 C.ar    1  UNL1        0.1380
     13 O         142.4227  139.9493  160.4414 O.3     1  UNL1       -0.5054
     14 C         142.2159  142.0656  158.9487 C.ar    1  UNL1        0.0573
     15 C         142.1961  143.5588  158.8074 C.ar    1  UNL1        0.1019
     16 N         142.3632  144.4289  160.0177 N.ar    1  UNL1       -0.2396
     17 C         142.5503  143.8058  161.3694 C.ar    1  UNL1        0.1570
     18 H         142.5395  139.5601  161.2857 H       1  UNL1        0.2922
     19 C         142.7174  144.6759  162.5797 C.3     1  UNL1        0.4350
     20 F         142.8847  145.5461  163.7901 F       1  UNL1       -0.1644
     21 F         141.2270  144.7521  162.7308 F       1  UNL1       -0.1644
     22 F         144.2078  144.5997  162.4286 F       1  UNL1       -0.1644
     23 C         142.3183  138.9535  169.1528 C.3     1  UNL1        0.0437
     24 C         142.2004  139.7946  170.3892 C.3     1  UNL1        0.0768
     25 C         143.7937  142.5302  169.5972 C.3     1  UNL1        0.0173
     26 C         142.3379  142.4266  169.9433 C.3     1  UNL1        0.0576
     27 C         141.3588  143.5622  169.9862 C.3     1  UNL1        0.0174
     28 C         140.0213  143.0066  170.3769 C.3     1  UNL1        0.0187
     29 C         140.1738  141.5276  170.5754 C.3     1  UNL1        0.0721
     30 N         141.6055  141.1692  170.3074 N.3     1  UNL1       -0.2737
@<TRIPOS>BOND
     1    26    25    1
     2    26    27    1
     3    27    28    1
     4    28    29    1
     5    29    30    1
     6    30    24    1
     7    24    23    1
     8    23     1    1
     9     1     2   ar
    10     2     3   ar
    11     3     4   ar
    12     4     5   ar
    13     5     6   ar
    14     6    11    1
    15    11    12   ar
    16    12    13    1
    17    12    14   ar
    18    14    15   ar
    19    15    16   ar
    20    16    17   ar
    21    17    19    1
    22    19    20    1
    23    19    21    1
    24    19    22    1
    25     6     7   ar
    26     7     8   ar
    27     8     9   ar
    28     9    10   ar
    29    30    26    1
    30    10     1   ar
    31     9     4   ar
    32    17    11   ar
    33    13    18    1
