@<TRIPOS>MOLECULE
*****
 27 29 0 0 0
SMALL
GASTEIGER

@<TRIPOS>ATOM
      1 C         142.6638  142.8659  164.9118 C.ar    1  UNL1        0.1293
      2 C         142.7855  142.3830  166.3267 C.ar    1  UNL1        0.0486
      3 C         141.5898  142.4052  167.2322 C.ar    1  UNL1        0.0519
      4 C         140.2725  142.9102  166.7228 C.ar    1  UNL1        0.0294
      5 C         140.1508  143.3931  165.3079 C.ar    1  UNL1        0.0621
      6 N         141.3465  143.3709  164.4024 N.ar    1  UNL1       -0.2351
      7 N         141.7115  141.9223  168.6472 N.pl3   1  UNL1       -0.3027
      8 C         142.7407  140.8902  169.0015 C.3     1  UNL1        0.1231
      9 C         142.8624  140.4073  170.4164 C.3     1  UNL1        0.1636
     10 O         141.9550  140.9564  171.4770 O.3     1  UNL1       -0.3501
     11 C         140.9258  141.9885  171.1227 C.3     1  UNL1        0.1636
     12 C         140.8040  142.4714  169.7078 C.3     1  UNL1        0.1231
     13 N         143.8595  142.8437  164.0063 N.pl3   1  UNL1       -0.3181
     14 H         143.8445  143.3445  163.1589 H       1  UNL1        0.1482
     15 C         145.0779  142.0585  164.3921 C.3     1  UNL1        0.0882
     16 C         144.9190  139.4671  164.4908 C.3     1  UNL1        0.0018
     17 C         145.3330  140.7168  163.7717 C.3     1  UNL1        0.0212
     18 C         138.8334  143.8981  164.7984 C.3     1  UNL1        0.0556
     19 C         137.8059  142.9315  164.2889 C.3     1  UNL1        0.0916
     20 C         138.1134  141.4640  164.2448 C.ar    1  UNL1        0.2053
     21 N         138.5079  140.6821  163.0269 N.ar    1  UNL1       -0.2168
     22 C         138.7188  139.2556  163.4402 C.ar    1  UNL1        0.0923
     23 C         139.1229  138.1270  162.5386 C.3     1  UNL1        0.0551
     24 C         138.4546  139.1559  164.9134 C.ar    1  UNL1        0.1377
     25 O         138.0805  140.5208  165.4107 O.2     1  UNL1       -0.4430
     26 C         138.5482  137.9102  165.7436 C.3     1  UNL1        0.0658
     27 C         137.5652  137.6714  166.8512 C.3     1  UNL1        0.0085
@<TRIPOS>BOND
     1    16    17    1
     2    17    15    1
     3    15    13    1
     4    13     1    1
     5     1     2   ar
     6     2     3   ar
     7     3     7    1
     8     7     8    1
     9     8     9    1
    10     9    10    1
    11    10    11    1
    12    11    12    1
    13     3     4   ar
    14     4     5   ar
    15     5    18    1
    16    18    19    1
    17    19    20    1
    18    20    21   ar
    19    21    22   ar
    20    22    23    1
    21    22    24   ar
    22    24    26    1
    23    26    27    1
    24    24    25   ar
    25     5     6   ar
    26     6     1   ar
    27    12     7    1
    28    25    20   ar
    29    13    14    1
@<TRIPOS>MOLECULE
*****
 27 29 0 0 0
SMALL
GASTEIGER

@<TRIPOS>ATOM
      1 C         141.8804  140.1288  165.2183 C.ar    1  UNL1        0.1293
      2 C         141.4186  140.3250  166.6319 C.ar    1  UNL1        0.0486
      3 C         141.9843  141.4423  167.4575 C.ar    1  UNL1        0.0519
      4 C         143.0119  142.3634  166.8695 C.ar    1  UNL1        0.0294
      5 C         143.4737  142.1671  165.4559 C.ar    1  UNL1        0.0621
      6 N         142.9079  141.0498  164.6304 N.ar    1  UNL1       -0.2351
      7 N         141.5225  141.6386  168.8711 N.pl3   1  UNL1       -0.3027
      8 C         140.4188  142.6089  169.1716 C.3     1  UNL1        0.1231
      9 C         139.9569  142.8051  170.5852 C.3     1  UNL1        0.1636
     10 O         140.5987  142.0310  171.6982 O.3     1  UNL1       -0.3501
     11 C         141.7025  141.0607  171.3977 C.3     1  UNL1        0.1636
     12 C         142.1643  140.8645  169.9841 C.3     1  UNL1        0.1231
     13 N         141.3146  139.0115  164.3928 N.pl3   1  UNL1       -0.3181
     14 H         141.4241  139.0181  163.4144 H       1  UNL1        0.1482
     15 C         140.5821  137.8841  165.0578 C.3     1  UNL1        0.0882
     16 C         138.2791  138.5511  166.0584 C.3     1  UNL1        0.0018
     17 C         139.0836  137.8344  165.0147 C.3     1  UNL1        0.0212
     18 C         144.5012  143.0882  164.8679 C.3     1  UNL1        0.0556
     19 C         144.0969  144.4458  164.3745 C.3     1  UNL1        0.0916
     20 C         142.7909  144.6253  163.6587 C.ar    1  UNL1        0.2053
     21 N         142.6137  144.8094  162.1806 N.ar    1  UNL1       -0.2168
     22 C         141.1461  144.9502  161.9037 C.ar    1  UNL1        0.0923
     23 C         140.5185  145.1525  160.5565 C.3     1  UNL1        0.0551
     24 C         140.4164  144.8531  163.2108 C.ar    1  UNL1        0.1377
     25 O         141.4330  144.6523  164.2953 O.2     1  UNL1       -0.4430
     26 C         138.9311  144.9413  163.3999 C.3     1  UNL1        0.0658
     27 C         138.3182  144.5579  164.7142 C.3     1  UNL1        0.0085
@<TRIPOS>BOND
     1    16    17    1
     2    17    15    1
     3    15    13    1
     4    13     1    1
     5     1     2   ar
     6     2     3   ar
     7     3     7    1
     8     7     8    1
     9     8     9    1
    10     9    10    1
    11    10    11    1
    12    11    12    1
    13     3     4   ar
    14     4     5   ar
    15     5    18    1
    16    18    19    1
    17    19    20    1
    18    20    21   ar
    19    21    22   ar
    20    22    23    1
    21    22    24   ar
    22    24    26    1
    23    26    27    1
    24    24    25   ar
    25     5     6   ar
    26     6     1   ar
    27    12     7    1
    28    25    20   ar
    29    13    14    1
@<TRIPOS>MOLECULE
*****
 27 29 0 0 0
SMALL
GASTEIGER

@<TRIPOS>ATOM
      1 C         139.9069  142.4985  165.0474 C.ar    1  UNL1        0.1293
      2 C         140.3905  142.7157  166.4506 C.ar    1  UNL1        0.0486
      3 C         140.4193  141.5711  167.4196 C.ar    1  UNL1        0.0519
      4 C         139.9643  140.2093  166.9855 C.ar    1  UNL1        0.0294
      5 C         139.4807  139.9921  165.5824 C.ar    1  UNL1        0.0621
      6 N         139.4520  141.1367  164.6133 N.ar    1  UNL1       -0.2351
      7 N         140.9029  141.7883  168.8228 N.pl3   1  UNL1       -0.3027
      8 C         140.1716  141.1628  169.9735 C.3     1  UNL1        0.1231
      9 C         140.6552  141.3800  171.3766 C.3     1  UNL1        0.1636
     10 O         141.8702  142.2228  171.6292 O.3     1  UNL1       -0.3501
     11 C         142.6015  142.8482  170.4786 C.3     1  UNL1        0.1636
     12 C         142.1179  142.6310  169.0754 C.3     1  UNL1        0.1231
     13 N         139.8782  143.6431  164.0784 N.pl3   1  UNL1       -0.3181
     14 H         139.1404  143.7218  163.4313 H       1  UNL1        0.1482
     15 C         140.9735  144.6677  164.0953 C.3     1  UNL1        0.0882
     16 C         143.5381  145.0529  163.9388 C.3     1  UNL1        0.0018
     17 C         142.2965  144.3619  163.4581 C.3     1  UNL1        0.0212
     18 C         139.0257  138.6302  165.1482 C.3     1  UNL1        0.0556
     19 C         140.0361  137.5743  164.8103 C.3     1  UNL1        0.0916
     20 C         141.3527  137.9623  164.2052 C.ar    1  UNL1        0.2053
     21 N         141.7683  137.7399  162.7812 N.ar    1  UNL1       -0.2168
     22 C         143.1574  138.2810  162.6139 C.ar    1  UNL1        0.0923
     23 C         143.9622  138.2676  161.3482 C.3     1  UNL1        0.0551
     24 C         143.6002  138.8377  163.9345 C.ar    1  UNL1        0.1377
     25 O         142.4848  138.6408  164.9180 O.2     1  UNL1       -0.4430
     26 C         144.9255  139.4788  164.2213 C.3     1  UNL1        0.0658
     27 C         145.1945  140.8820  163.7642 C.3     1  UNL1        0.0085
@<TRIPOS>BOND
     1    16    17    1
     2    17    15    1
     3    15    13    1
     4    13     1    1
     5     1     2   ar
     6     2     3   ar
     7     3     7    1
     8     7     8    1
     9     8     9    1
    10     9    10    1
    11    10    11    1
    12    11    12    1
    13     3     4   ar
    14     4     5   ar
    15     5    18    1
    16    18    19    1
    17    19    20    1
    18    20    21   ar
    19    21    22   ar
    20    22    23    1
    21    22    24   ar
    22    24    26    1
    23    26    27    1
    24    24    25   ar
    25     5     6   ar
    26     6     1   ar
    27    12     7    1
    28    25    20   ar
    29    13    14    1
@<TRIPOS>MOLECULE
*****
 27 29 0 0 0
SMALL
GASTEIGER

@<TRIPOS>ATOM
      1 C         140.1533  141.3060  166.2090 C.ar    1  UNL1        0.1293
      2 C         141.4950  141.1953  165.5474 C.ar    1  UNL1        0.0486
      3 C         141.8870  142.1719  164.4785 C.ar    1  UNL1        0.0519
      4 C         140.9374  143.2592  164.0712 C.ar    1  UNL1        0.0294
      5 C         139.5957  143.3699  164.7328 C.ar    1  UNL1        0.0621
      6 N         139.2037  142.3933  165.8017 N.ar    1  UNL1       -0.2351
      7 N         143.2287  142.0612  163.8170 N.pl3   1  UNL1       -0.3027
      8 C         144.3835  141.4572  164.5596 C.3     1  UNL1        0.1231
      9 C         145.7252  141.3465  163.8981 C.3     1  UNL1        0.1636
     10 O         145.9121  141.8397  162.4939 O.3     1  UNL1       -0.3501
     11 C         144.7573  142.4437  161.7512 C.3     1  UNL1        0.1636
     12 C         143.4155  142.5544  162.4128 C.3     1  UNL1        0.1231
     13 N         139.7613  140.3293  167.2779 N.pl3   1  UNL1       -0.3181
     14 H         140.2288  140.3339  168.1443 H       1  UNL1        0.1482
     15 C         138.6571  139.3457  167.0267 C.3     1  UNL1        0.0882
     16 C         138.9723  137.6003  165.1282 C.3     1  UNL1        0.0018
     17 C         138.3711  138.8798  165.6299 C.3     1  UNL1        0.0212
     18 C         138.6460  144.4572  164.3254 C.3     1  UNL1        0.0556
     19 C         137.6286  144.2016  163.2533 C.3     1  UNL1        0.0916
     20 C         137.8177  143.0622  162.2962 C.ar    1  UNL1        0.2053
     21 N         138.5190  143.1304  160.9719 N.ar    1  UNL1       -0.2168
     22 C         138.4735  141.7650  160.3525 C.ar    1  UNL1        0.0923
     23 C         139.0552  141.3793  159.0248 C.3     1  UNL1        0.0551
     24 C         137.7440  140.8530  161.2940 C.ar    1  UNL1        0.1377
     25 O         137.3388  141.6548  162.4952 O.2     1  UNL1       -0.4430
     26 C         137.4683  139.3953  161.0730 C.3     1  UNL1        0.0658
     27 C         138.4397  138.3648  161.5674 C.3     1  UNL1        0.0085
@<TRIPOS>BOND
     1    16    17    1
     2    17    15    1
     3    15    13    1
     4    13     1    1
     5     1     2   ar
     6     2     3   ar
     7     3     7    1
     8     7     8    1
     9     8     9    1
    10     9    10    1
    11    10    11    1
    12    11    12    1
    13     3     4   ar
    14     4     5   ar
    15     5    18    1
    16    18    19    1
    17    19    20    1
    18    20    21   ar
    19    21    22   ar
    20    22    23    1
    21    22    24   ar
    22    24    26    1
    23    26    27    1
    24    24    25   ar
    25     5     6   ar
    26     6     1   ar
    27    12     7    1
    28    25    20   ar
    29    13    14    1
@<TRIPOS>MOLECULE
*****
 27 29 0 0 0
SMALL
GASTEIGER

@<TRIPOS>ATOM
      1 C         140.8323  143.5997  164.5324 C.ar    1  UNL1        0.1293
      2 C         140.3686  143.1986  165.9013 C.ar    1  UNL1        0.0486
      3 C         141.2866  142.4372  166.8110 C.ar    1  UNL1        0.0519
      4 C         142.6684  142.0770  166.3518 C.ar    1  UNL1        0.0294
      5 C         143.1321  142.4782  164.9829 C.ar    1  UNL1        0.0621
      6 N         142.2141  143.2396  164.0732 N.ar    1  UNL1       -0.2351
      7 N         140.8228  142.0360  168.1800 N.pl3   1  UNL1       -0.3027
      8 C         140.4529  143.0869  169.1844 C.3     1  UNL1        0.1231
      9 C         139.9891  142.6858  170.5533 C.3     1  UNL1        0.1636
     10 O         139.8953  141.2337  170.9179 O.3     1  UNL1       -0.3501
     11 C         140.2652  140.1829  169.9135 C.3     1  UNL1        0.1636
     12 C         140.7290  140.5840  168.5445 C.3     1  UNL1        0.1231
     13 N         139.9143  144.3611  163.6227 N.pl3   1  UNL1       -0.3181
     14 H         140.2873  144.9476  162.9255 H       1  UNL1        0.1482
     15 C         138.4279  144.2289  163.7754 C.3     1  UNL1        0.0882
     16 C         137.6014  141.7718  163.6031 C.3     1  UNL1        0.0018
     17 C         137.6900  143.1558  163.0312 C.3     1  UNL1        0.0212
     18 C         144.5139  142.1180  164.5236 C.3     1  UNL1        0.0556
     19 C         144.9104  140.6769  164.3970 C.3     1  UNL1        0.0916
     20 C         144.0132  139.7124  163.6795 C.ar    1  UNL1        0.2053
     21 N         144.1157  139.3205  162.2352 N.ar    1  UNL1       -0.2168
     22 C         143.0218  138.3363  161.9433 C.ar    1  UNL1        0.0923
     23 C         142.7535  137.6832  160.6200 C.3     1  UNL1        0.0551
     24 C         142.2435  138.1201  163.2073 C.ar    1  UNL1        0.1377
     25 O         142.8562  138.9705  164.2802 O.2     1  UNL1       -0.4430
     26 C         141.0602  137.2127  163.3697 C.3     1  UNL1        0.0658
     27 C         139.7076  137.6511  162.8917 C.3     1  UNL1        0.0085
@<TRIPOS>BOND
     1    16    17    1
     2    17    15    1
     3    15    13    1
     4    13     1    1
     5     1     2   ar
     6     2     3   ar
     7     3     7    1
     8     7     8    1
     9     8     9    1
    10     9    10    1
    11    10    11    1
    12    11    12    1
    13     3     4   ar
    14     4     5   ar
    15     5    18    1
    16    18    19    1
    17    19    20    1
    18    20    21   ar
    19    21    22   ar
    20    22    23    1
    21    22    24   ar
    22    24    26    1
    23    26    27    1
    24    24    25   ar
    25     5     6   ar
    26     6     1   ar
    27    12     7    1
    28    25    20   ar
    29    13    14    1
@<TRIPOS>MOLECULE
*****
 27 29 0 0 0
SMALL
GASTEIGER

@<TRIPOS>ATOM
      1 C         139.3861  140.2039  165.5134 C.ar    1  UNL1        0.1293
      2 C         139.6594  140.7514  166.8829 C.ar    1  UNL1        0.0486
      3 C         141.0166  140.5857  167.4998 C.ar    1  UNL1        0.0519
      4 C         142.1005  139.8724  166.7472 C.ar    1  UNL1        0.0294
      5 C         141.8272  139.3249  165.3777 C.ar    1  UNL1        0.0621
      6 N         140.4700  139.4906  164.7608 N.ar    1  UNL1       -0.2351
      7 N         141.2899  141.1332  168.8693 N.pl3   1  UNL1       -0.3027
      8 C         142.1770  142.3314  169.0347 C.3     1  UNL1        0.1231
      9 C         142.4503  142.8790  170.4041 C.3     1  UNL1        0.1636
     10 O         141.8365  142.2284  171.6083 O.3     1  UNL1       -0.3501
     11 C         140.9494  141.0302  171.4429 C.3     1  UNL1        0.1636
     12 C         140.6761  140.4826  170.0734 C.3     1  UNL1        0.1231
     13 N         138.0289  140.3696  164.8966 N.pl3   1  UNL1       -0.3181
     14 H         137.2991  139.7553  165.1402 H       1  UNL1        0.1482
     15 C         137.7835  141.4712  163.9086 C.3     1  UNL1        0.0882
     16 C         137.7119  144.0054  163.3403 C.3     1  UNL1        0.0018
     17 C         137.8664  142.9035  164.3463 C.3     1  UNL1        0.0212
     18 C         142.9111  138.6116  164.6250 C.3     1  UNL1        0.0556
     19 C         144.2213  139.2955  164.3690 C.3     1  UNL1        0.0916
     20 C         144.2708  140.5242  163.5099 C.ar    1  UNL1        0.2053
     21 N         144.5237  140.5568  162.0317 N.ar    1  UNL1       -0.2168
     22 C         144.4852  141.9887  161.5864 C.ar    1  UNL1        0.0923
     23 C         144.6879  142.4817  160.1843 C.3     1  UNL1        0.0551
     24 C         144.2086  142.8410  162.7894 C.ar    1  UNL1        0.1377
     25 O         144.0760  141.9359  163.9781 O.2     1  UNL1       -0.4430
     26 C         144.0860  144.3358  162.8014 C.3     1  UNL1        0.0658
     27 C         143.6867  145.0456  164.0611 C.3     1  UNL1        0.0085
@<TRIPOS>BOND
     1    16    17    1
     2    17    15    1
     3    15    13    1
     4    13     1    1
     5     1     2   ar
     6     2     3   ar
     7     3     7    1
     8     7     8    1
     9     8     9    1
    10     9    10    1
    11    10    11    1
    12    11    12    1
    13     3     4   ar
    14     4     5   ar
    15     5    18    1
    16    18    19    1
    17    19    20    1
    18    20    21   ar
    19    21    22   ar
    20    22    23    1
    21    22    24   ar
    22    24    26    1
    23    26    27    1
    24    24    25   ar
    25     5     6   ar
    26     6     1   ar
    27    12     7    1
    28    25    20   ar
    29    13    14    1
@<TRIPOS>MOLECULE
*****
 27 29 0 0 0
SMALL
GASTEIGER

@<TRIPOS>ATOM
      1 C         140.1999  141.5411  167.6603 C.ar    1  UNL1        0.1293
      2 C         140.3295  142.6864  166.7003 C.ar    1  UNL1        0.0486
      3 C         140.0128  142.4869  165.2477 C.ar    1  UNL1        0.0519
      4 C         139.5667  141.1422  164.7551 C.ar    1  UNL1        0.0294
      5 C         139.4371  139.9970  165.7151 C.ar    1  UNL1        0.0621
      6 N         139.7538  140.1964  167.1677 N.ar    1  UNL1       -0.2351
      7 N         140.1424  143.6323  164.2878 N.pl3   1  UNL1       -0.3027
      8 C         141.4596  144.3320  164.1285 C.3     1  UNL1        0.1231
      9 C         141.5892  145.4773  163.1686 C.3     1  UNL1        0.1636
     10 O         140.4016  145.9229  162.3678 O.3     1  UNL1       -0.3501
     11 C         139.0844  145.2231  162.5271 C.3     1  UNL1        0.1636
     12 C         138.9548  144.0778  163.4871 C.3     1  UNL1        0.1231
     13 N         140.5166  141.7406  169.1129 N.pl3   1  UNL1       -0.3181
     14 H         139.9657  141.3028  169.8014 H       1  UNL1        0.1482
     15 C         141.6725  142.6071  169.5164 C.3     1  UNL1        0.0882
     16 C         144.2301  142.5533  169.9702 C.3     1  UNL1        0.0018
     17 C         143.0628  142.2556  169.0764 C.3     1  UNL1        0.0212
     18 C         138.9910  138.6522  165.2225 C.3     1  UNL1        0.0556
     19 C         140.0053  137.5880  164.9253 C.3     1  UNL1        0.0916
     20 C         141.3205  137.9574  164.3056 C.ar    1  UNL1        0.2053
     21 N         141.7090  137.7490  162.8719 N.ar    1  UNL1       -0.2168
     22 C         143.1067  138.2629  162.6910 C.ar    1  UNL1        0.0923
     23 C         143.8913  138.2527  161.4127 C.3     1  UNL1        0.0551
     24 C         143.5818  138.7889  164.0131 C.ar    1  UNL1        0.1377
     25 O         142.4779  138.6001  165.0109 O.2     1  UNL1       -0.4430
     26 C         144.9249  139.3969  164.2888 C.3     1  UNL1        0.0658
     27 C         145.2224  140.7957  163.8360 C.3     1  UNL1        0.0085
@<TRIPOS>BOND
     1    16    17    1
     2    17    15    1
     3    15    13    1
     4    13     1    1
     5     1     2   ar
     6     2     3   ar
     7     3     7    1
     8     7     8    1
     9     8     9    1
    10     9    10    1
    11    10    11    1
    12    11    12    1
    13     3     4   ar
    14     4     5   ar
    15     5    18    1
    16    18    19    1
    17    19    20    1
    18    20    21   ar
    19    21    22   ar
    20    22    23    1
    21    22    24   ar
    22    24    26    1
    23    26    27    1
    24    24    25   ar
    25     5     6   ar
    26     6     1   ar
    27    12     7    1
    28    25    20   ar
    29    13    14    1
@<TRIPOS>MOLECULE
*****
 27 29 0 0 0
SMALL
GASTEIGER

@<TRIPOS>ATOM
      1 C         140.1018  140.9435  168.8032 C.ar    1  UNL1        0.1293
      2 C         140.4912  142.0141  167.8274 C.ar    1  UNL1        0.0486
      3 C         140.0532  141.9196  166.3959 C.ar    1  UNL1        0.0519
      4 C         139.2259  140.7544  165.9401 C.ar    1  UNL1        0.0294
      5 C         138.8366  139.6837  166.9158 C.ar    1  UNL1        0.0621
      6 N         139.2745  139.7783  168.3473 N.ar    1  UNL1       -0.2351
      7 N         140.4427  142.9903  165.4202 N.pl3   1  UNL1       -0.3027
      8 C         139.3978  143.9066  164.8556 C.3     1  UNL1        0.1231
      9 C         139.7871  144.9772  163.8800 C.3     1  UNL1        0.1636
     10 O         141.2214  145.1317  163.4687 O.3     1  UNL1       -0.3501
     11 C         142.2663  144.2154  164.0333 C.3     1  UNL1        0.1636
     12 C         141.8769  143.1447  165.0090 C.3     1  UNL1        0.1231
     13 N         140.5397  141.0381  170.2347 N.pl3   1  UNL1       -0.3181
     14 H         139.9313  141.4130  170.9118 H       1  UNL1        0.1482
     15 C         141.9046  140.5614  170.6345 C.3     1  UNL1        0.0882
     16 C         143.6979  142.2384  169.7848 C.3     1  UNL1        0.0018
     17 C         143.0897  140.8673  169.7673 C.3     1  UNL1        0.0212
     18 C         138.0092  138.5184  166.4600 C.3     1  UNL1        0.0556
     19 C         138.6601  137.3686  165.7500 C.3     1  UNL1        0.0916
     20 C         139.2942  137.5784  164.4069 C.ar    1  UNL1        0.2053
     21 N         140.7665  137.5989  164.1206 N.ar    1  UNL1       -0.2168
     22 C         140.9495  137.8377  162.6510 C.ar    1  UNL1        0.0923
     23 C         142.2614  137.9328  161.9299 C.3     1  UNL1        0.0551
     24 C         139.5904  137.9648  162.0292 C.ar    1  UNL1        0.1377
     25 O         138.5673  137.8045  163.1144 O.2     1  UNL1       -0.4430
     26 C         139.3045  138.2093  160.5772 C.3     1  UNL1        0.0658
     27 C         138.7883  139.5444  160.1287 C.3     1  UNL1        0.0085
@<TRIPOS>BOND
     1    16    17    1
     2    17    15    1
     3    15    13    1
     4    13     1    1
     5     1     2   ar
     6     2     3   ar
     7     3     7    1
     8     7     8    1
     9     8     9    1
    10     9    10    1
    11    10    11    1
    12    11    12    1
    13     3     4   ar
    14     4     5   ar
    15     5    18    1
    16    18    19    1
    17    19    20    1
    18    20    21   ar
    19    21    22   ar
    20    22    23    1
    21    22    24   ar
    22    24    26    1
    23    26    27    1
    24    24    25   ar
    25     5     6   ar
    26     6     1   ar
    27    12     7    1
    28    25    20   ar
    29    13    14    1
@<TRIPOS>MOLECULE
*****
 27 29 0 0 0
SMALL
GASTEIGER

@<TRIPOS>ATOM
      1 C         142.3549  143.7645  163.8687 C.ar    1  UNL1        0.1293
      2 C         142.7850  142.8874  165.0069 C.ar    1  UNL1        0.0486
      3 C         141.8283  142.5811  166.1209 C.ar    1  UNL1        0.0519
      4 C         140.4414  143.1519  166.0966 C.ar    1  UNL1        0.0294
      5 C         140.0113  144.0290  164.9584 C.ar    1  UNL1        0.0621
      6 N         140.9680  144.3353  163.8444 N.ar    1  UNL1       -0.2351
      7 N         142.2586  141.7039  167.2591 N.pl3   1  UNL1       -0.3027
      8 C         142.8037  142.3178  168.5145 C.3     1  UNL1        0.1231
      9 C         143.2339  141.4407  169.6527 C.3     1  UNL1        0.1636
     10 O         143.1191  139.9497  169.5356 O.3     1  UNL1       -0.3501
     11 C         142.5740  139.3358  168.2802 C.3     1  UNL1        0.1636
     12 C         142.1437  140.2130  167.1420 C.3     1  UNL1        0.1231
     13 N         143.3116  144.0708  162.7548 N.pl3   1  UNL1       -0.3181
     14 H         143.0865  144.7592  162.0879 H       1  UNL1        0.1482
     15 C         144.6111  143.3282  162.6568 C.3     1  UNL1        0.0882
     16 C         144.4218  142.4532  160.2178 C.3     1  UNL1        0.0018
     17 C         144.7681  142.2197  161.6585 C.3     1  UNL1        0.0212
     18 C         138.6243  144.5999  164.9341 C.3     1  UNL1        0.0556
     19 C         137.4542  143.7146  164.6223 C.3     1  UNL1        0.0916
     20 C         137.6763  142.3739  163.9872 C.ar    1  UNL1        0.2053
     21 N         137.4001  142.0197  162.5560 N.ar    1  UNL1       -0.2168
     22 C         137.7667  140.5789  162.3561 C.ar    1  UNL1        0.0923
     23 C         137.6509  139.8094  161.0737 C.3     1  UNL1        0.0551
     24 C         138.2695  140.0428  163.6637 C.ar    1  UNL1        0.1377
     25 O         138.2136  141.1522  164.6718 O.2     1  UNL1       -0.4430
     26 C         138.7446  138.6431  163.9185 C.3     1  UNL1        0.0658
     27 C         138.6725  138.0666  165.3015 C.3     1  UNL1        0.0085
@<TRIPOS>BOND
     1    16    17    1
     2    17    15    1
     3    15    13    1
     4    13     1    1
     5     1     2   ar
     6     2     3   ar
     7     3     7    1
     8     7     8    1
     9     8     9    1
    10     9    10    1
    11    10    11    1
    12    11    12    1
    13     3     4   ar
    14     4     5   ar
    15     5    18    1
    16    18    19    1
    17    19    20    1
    18    20    21   ar
    19    21    22   ar
    20    22    23    1
    21    22    24   ar
    22    24    26    1
    23    26    27    1
    24    24    25   ar
    25     5     6   ar
    26     6     1   ar
    27    12     7    1
    28    25    20   ar
    29    13    14    1
