@<TRIPOS>MOLECULE
*****
 26 30 0 0 0
SMALL
GASTEIGER

@<TRIPOS>ATOM
      1 C         140.5601  142.3075  166.0715 C.3     1  UNL1        0.0579
      2 C         140.0229  143.6021  165.5375 C.3     1  UNL1        0.0163
      3 C         140.3821  143.6885  164.0837 C.3     1  UNL1        0.0058
      4 C         141.1412  142.4472  163.7193 C.3     1  UNL1        0.0240
      5 C         141.8648  141.1376  163.6125 C.3     1  UNL1        0.0301
      6 C         142.5227  140.5278  162.4102 C.ar    1  UNL1       -0.0255
      7 C         143.1361  139.1984  162.7364 C.ar    1  UNL1       -0.0046
      8 C         143.8464  138.4184  161.6701 C.ar    1  UNL1       -0.0003
      9 C         143.9432  138.9677  160.2777 C.ar    1  UNL1       -0.0003
     10 C         143.3298  140.2971  159.9515 C.ar    1  UNL1       -0.0042
     11 C         142.6195  141.0771  161.0178 C.ar    1  UNL1       -0.0217
     12 C         142.0823  142.3719  160.4838 C.3     1  UNL1        0.0520
     13 C         141.3157  143.4370  161.2101 C.ar    1  UNL1       -0.0218
     14 C         140.9651  144.5770  160.3004 C.ar    1  UNL1       -0.0042
     15 C         140.1958  145.7504  160.8306 C.ar    1  UNL1       -0.0003
     16 C         139.7770  145.7839  162.2705 C.ar    1  UNL1       -0.0003
     17 C         140.1275  144.6439  163.1803 C.ar    1  UNL1       -0.0046
     18 C         140.8969  143.4705  162.6501 C.ar    1  UNL1       -0.0261
     19 C         141.2512  141.5936  164.9478 C.3     1  UNL1        0.0203
     20 C         140.2438  141.1145  169.4761 C.3     1  UNL1        0.0684
     21 C         140.2701  140.4668  168.1234 C.3     1  UNL1        0.0790
     22 N         140.4290  141.8133  167.4817 N.3     1  UNL1       -0.2732
     23 C         140.4027  142.4610  168.8345 C.3     1  UNL1        0.0790
     24 O         140.7932  141.3535  172.0041 O.co2   1  UNL1       -0.5491
     25 C         140.1128  140.6205  170.8863 C.2     1  UNL1        0.0527
     26 O         139.3012  139.3933  171.1787 O.co2   1  UNL1       -0.5491
@<TRIPOS>UNITY_ATOM_ATTR
24 1
charge -1
@<TRIPOS>BOND
     1    24    25   ar
     2    25    26   ar
     3    25    20    1
     4    20    21    1
     5    21    22    1
     6    22     1    1
     7     1     2    1
     8     2     3    1
     9     4     3    1
    10     4     5    1
    11     5     6    1
    12     6     7   ar
    13     7     8   ar
    14     8     9   ar
    15     9    10   ar
    16    10    11   ar
    17    11    12    1
    18    12    13    1
    19    13    14   ar
    20    14    15   ar
    21    15    16   ar
    22    16    17   ar
    23    17    18   ar
    24     4    19    1
    25    22    23    1
    26    23    20    1
    27    19     1    1
    28    18     4    1
    29    11     6   ar
    30    18    13   ar
@<TRIPOS>MOLECULE
*****
 26 30 0 0 0
SMALL
GASTEIGER

@<TRIPOS>ATOM
      1 C         141.4820  140.1684  165.9854 C.3     1  UNL1        0.0579
      2 C         142.1874  139.0599  165.2619 C.3     1  UNL1        0.0163
      3 C         142.3847  139.4876  163.8379 C.3     1  UNL1        0.0058
      4 C         141.8012  140.8606  163.6812 C.3     1  UNL1        0.0240
      5 C         141.1563  142.2108  163.7853 C.3     1  UNL1        0.0301
      6 C         140.9781  143.2472  162.7156 C.ar    1  UNL1       -0.0255
      7 C         140.2773  144.4641  163.2429 C.ar    1  UNL1       -0.0046
      8 C         139.9994  145.6231  162.3322 C.ar    1  UNL1       -0.0003
      9 C         140.4222  145.5652  160.8942 C.ar    1  UNL1       -0.0003
     10 C         141.1230  144.3483  160.3669 C.ar    1  UNL1       -0.0042
     11 C         141.4009  143.1893  161.2776 C.ar    1  UNL1       -0.0217
     12 C         142.1063  142.0807  160.5542 C.3     1  UNL1        0.0520
     13 C         142.5632  140.7562  161.0899 C.ar    1  UNL1       -0.0218
     14 C         143.2308  139.9356  160.0266 C.ar    1  UNL1       -0.0042
     15 C         143.7627  138.5721  160.3548 C.ar    1  UNL1       -0.0003
     16 C         143.6269  138.0291  161.7464 C.ar    1  UNL1       -0.0003
     17 C         142.9592  138.8497  162.8099 C.ar    1  UNL1       -0.0046
     18 C         142.4274  140.2132  162.4816 C.ar    1  UNL1       -0.0261
     19 C         141.2433  141.2814  165.0085 C.3     1  UNL1        0.0203
     20 C         140.5234  140.1595  169.4775 C.3     1  UNL1        0.0684
     21 C         139.7900  140.3002  168.1767 C.3     1  UNL1        0.0790
     22 N         141.0850  140.1647  167.4319 N.3     1  UNL1       -0.2732
     23 C         141.8184  140.0240  168.7328 C.3     1  UNL1        0.0790
     24 O         139.1726  139.1183  171.4375 O.co2   1  UNL1       -0.5491
     25 C         140.1265  140.1558  170.9241 C.2     1  UNL1        0.0527
     26 O         140.6835  141.1897  171.8573 O.co2   1  UNL1       -0.5491
@<TRIPOS>UNITY_ATOM_ATTR
24 1
charge -1
@<TRIPOS>BOND
     1    24    25   ar
     2    25    26   ar
     3    25    20    1
     4    20    21    1
     5    21    22    1
     6    22     1    1
     7     1     2    1
     8     2     3    1
     9     4     3    1
    10     4     5    1
    11     5     6    1
    12     6     7   ar
    13     7     8   ar
    14     8     9   ar
    15     9    10   ar
    16    10    11   ar
    17    11    12    1
    18    12    13    1
    19    13    14   ar
    20    14    15   ar
    21    15    16   ar
    22    16    17   ar
    23    17    18   ar
    24     4    19    1
    25    22    23    1
    26    23    20    1
    27    19     1    1
    28    18     4    1
    29    11     6   ar
    30    18    13   ar
@<TRIPOS>MOLECULE
*****
 26 30 0 0 0
SMALL
GASTEIGER

@<TRIPOS>ATOM
      1 C         142.3058  138.9936  161.9368 C.3     1  UNL1        0.0579
      2 C         142.9257  138.3081  163.1182 C.3     1  UNL1        0.0163
      3 C         142.5409  139.0708  164.3511 C.3     1  UNL1        0.0058
      4 C         141.6831  140.2277  163.9316 C.3     1  UNL1        0.0240
      5 C         140.8617  141.2899  163.2631 C.3     1  UNL1        0.0301
      6 C         140.1329  142.4415  163.8897 C.ar    1  UNL1       -0.0255
      7 C         139.4296  143.2720  162.8575 C.ar    1  UNL1       -0.0046
      8 C         138.6390  144.4763  163.2752 C.ar    1  UNL1       -0.0003
      9 C         138.5517  144.8501  164.7253 C.ar    1  UNL1       -0.0003
     10 C         139.2549  144.0196  165.7576 C.ar    1  UNL1       -0.0042
     11 C         140.0455  142.8153  165.3398 C.ar    1  UNL1       -0.0217
     12 C         140.6654  142.1298  166.5213 C.3     1  UNL1        0.0520
     13 C         141.5257  140.9013  166.5446 C.ar    1  UNL1       -0.0218
     14 C         141.9394  140.5483  167.9425 C.ar    1  UNL1       -0.0042
     15 C         142.8060  139.3488  168.1879 C.ar    1  UNL1       -0.0003
     16 C         143.2590  138.5023  167.0355 C.ar    1  UNL1       -0.0003
     17 C         142.8453  138.8553  165.6375 C.ar    1  UNL1       -0.0046
     18 C         141.9786  140.0548  165.3920 C.ar    1  UNL1       -0.0261
     19 C         141.5379  140.1800  162.4394 C.3     1  UNL1        0.0203
     20 C         142.6099  137.9648  158.4780 C.3     1  UNL1        0.0684
     21 C         142.9758  137.3594  159.8007 C.3     1  UNL1        0.0790
     22 N         142.4318  138.5674  160.5041 N.3     1  UNL1       -0.2732
     23 C         142.0659  139.1728  159.1813 C.3     1  UNL1        0.0790
     24 O         143.9519  137.9189  156.2538 O.co2   1  UNL1       -0.5491
     25 C         142.7359  137.5388  157.0453 C.2     1  UNL1        0.0527
     26 O         141.6456  136.7324  156.4040 O.co2   1  UNL1       -0.5491
@<TRIPOS>UNITY_ATOM_ATTR
24 1
charge -1
@<TRIPOS>BOND
     1    24    25   ar
     2    25    26   ar
     3    25    20    1
     4    20    21    1
     5    21    22    1
     6    22     1    1
     7     1     2    1
     8     2     3    1
     9     4     3    1
    10     4     5    1
    11     5     6    1
    12     6     7   ar
    13     7     8   ar
    14     8     9   ar
    15     9    10   ar
    16    10    11   ar
    17    11    12    1
    18    12    13    1
    19    13    14   ar
    20    14    15   ar
    21    15    16   ar
    22    16    17   ar
    23    17    18   ar
    24     4    19    1
    25    22    23    1
    26    23    20    1
    27    19     1    1
    28    18     4    1
    29    11     6   ar
    30    18    13   ar
@<TRIPOS>MOLECULE
*****
 26 30 0 0 0
SMALL
GASTEIGER

@<TRIPOS>ATOM
      1 C         142.9512  139.7351  161.3536 C.3     1  UNL1        0.0579
      2 C         143.5310  138.8393  162.4078 C.3     1  UNL1        0.0163
      3 C         143.0561  139.3282  163.7439 C.3     1  UNL1        0.0058
      4 C         142.1828  140.5262  163.5155 C.3     1  UNL1        0.0240
      5 C         141.3620  141.6827  163.0267 C.3     1  UNL1        0.0301
      6 C         140.5624  142.6670  163.8278 C.ar    1  UNL1       -0.0255
      7 C         139.8867  143.6728  162.9437 C.ar    1  UNL1       -0.0046
      8 C         139.0346  144.7495  163.5475 C.ar    1  UNL1       -0.0003
      9 C         138.8584  144.8205  165.0354 C.ar    1  UNL1       -0.0003
     10 C         139.5342  143.8148  165.9195 C.ar    1  UNL1       -0.0042
     11 C         140.3862  142.7380  165.3157 C.ar    1  UNL1       -0.0217
     12 C         140.9660  141.8422  166.3699 C.3     1  UNL1        0.0520
     13 C         141.8652  140.6542  166.1967 C.ar    1  UNL1       -0.0218
     14 C         142.2166  140.0355  167.5172 C.ar    1  UNL1       -0.0042
     15 C         143.1094  138.8312  167.5674 C.ar    1  UNL1       -0.0003
     16 C         143.6508  138.2456  166.2971 C.ar    1  UNL1       -0.0003
     17 C         143.2995  138.8642  164.9765 C.ar    1  UNL1       -0.0046
     18 C         142.4067  140.0685  164.9263 C.ar    1  UNL1       -0.0261
     19 C         142.1180  140.7777  162.0381 C.3     1  UNL1        0.0203
     20 C         143.4718  139.4336  157.7825 C.3     1  UNL1        0.0684
     21 C         142.8407  138.5754  158.8386 C.3     1  UNL1        0.0790
     22 N         143.1669  139.6102  159.8744 N.3     1  UNL1       -0.2732
     23 C         143.7980  140.4684  158.8183 C.3     1  UNL1        0.0790
     24 O         142.5868  139.6726  155.3516 O.co2   1  UNL1       -0.5491
     25 C         143.6875  139.3088  156.3034 C.2     1  UNL1        0.0527
     26 O         145.0040  138.8201  155.7760 O.co2   1  UNL1       -0.5491
@<TRIPOS>UNITY_ATOM_ATTR
24 1
charge -1
@<TRIPOS>BOND
     1    24    25   ar
     2    25    26   ar
     3    25    20    1
     4    20    21    1
     5    21    22    1
     6    22     1    1
     7     1     2    1
     8     2     3    1
     9     4     3    1
    10     4     5    1
    11     5     6    1
    12     6     7   ar
    13     7     8   ar
    14     8     9   ar
    15     9    10   ar
    16    10    11   ar
    17    11    12    1
    18    12    13    1
    19    13    14   ar
    20    14    15   ar
    21    15    16   ar
    22    16    17   ar
    23    17    18   ar
    24     4    19    1
    25    22    23    1
    26    23    20    1
    27    19     1    1
    28    18     4    1
    29    11     6   ar
    30    18    13   ar
@<TRIPOS>MOLECULE
*****
 26 30 0 0 0
SMALL
GASTEIGER

@<TRIPOS>ATOM
      1 C         139.9718  140.7360  166.4451 C.3     1  UNL1        0.0579
      2 C         139.5454  139.4332  165.8361 C.3     1  UNL1        0.0163
      3 C         139.3479  139.6517  164.3654 C.3     1  UNL1        0.0058
      4 C         139.6521  141.0896  164.0654 C.3     1  UNL1        0.0240
      5 C         140.0062  142.5467  164.0289 C.3     1  UNL1        0.0301
      6 C         140.0336  143.4734  162.8497 C.ar    1  UNL1       -0.0255
      7 C         140.4449  144.8589  163.2509 C.ar    1  UNL1       -0.0046
      8 C         140.5363  145.9428  162.2181 C.ar    1  UNL1       -0.0003
      9 C         140.2163  145.6411  160.7840 C.ar    1  UNL1       -0.0003
     10 C         139.8050  144.2555  160.3827 C.ar    1  UNL1       -0.0042
     11 C         139.7137  143.1717  161.4156 C.ar    1  UNL1       -0.0217
     12 C         139.2873  141.8688  160.8066 C.3     1  UNL1        0.0520
     13 C         139.0756  140.5459  161.4812 C.ar    1  UNL1       -0.0218
     14 C         138.6477  139.4935  160.5018 C.ar    1  UNL1       -0.0042
     15 C         138.3823  138.0943  160.9726 C.ar    1  UNL1       -0.0003
     16 C         138.5446  137.7475  162.4228 C.ar    1  UNL1       -0.0003
     17 C         138.9725  138.7999  163.4023 C.ar    1  UNL1       -0.0046
     18 C         139.2379  140.1992  162.9315 C.ar    1  UNL1       -0.0261
     19 C         140.0377  141.7597  165.3507 C.3     1  UNL1        0.0203
     20 C         140.7120  141.3091  169.9433 C.3     1  UNL1        0.0684
     21 C         139.6207  140.6065  169.1914 C.3     1  UNL1        0.0790
     22 N         140.2784  140.9734  167.8941 N.3     1  UNL1       -0.2732
     23 C         141.3697  141.6759  168.6461 C.3     1  UNL1        0.0790
     24 O         140.1739  142.4930  172.1925 O.co2   1  UNL1       -0.5491
     25 C         141.0187  141.5466  171.3923 C.2     1  UNL1        0.0527
     26 O         142.1704  140.8375  172.0411 O.co2   1  UNL1       -0.5491
@<TRIPOS>UNITY_ATOM_ATTR
24 1
charge -1
@<TRIPOS>BOND
     1    24    25   ar
     2    25    26   ar
     3    25    20    1
     4    20    21    1
     5    21    22    1
     6    22     1    1
     7     1     2    1
     8     2     3    1
     9     4     3    1
    10     4     5    1
    11     5     6    1
    12     6     7   ar
    13     7     8   ar
    14     8     9   ar
    15     9    10   ar
    16    10    11   ar
    17    11    12    1
    18    12    13    1
    19    13    14   ar
    20    14    15   ar
    21    15    16   ar
    22    16    17   ar
    23    17    18   ar
    24     4    19    1
    25    22    23    1
    26    23    20    1
    27    19     1    1
    28    18     4    1
    29    11     6   ar
    30    18    13   ar
@<TRIPOS>MOLECULE
*****
 26 30 0 0 0
SMALL
GASTEIGER

@<TRIPOS>ATOM
      1 C         140.8086  138.6297  160.8169 C.3     1  UNL1        0.0579
      2 C         140.3262  137.6237  161.8194 C.3     1  UNL1        0.0163
      3 C         139.7462  138.3707  162.9836 C.3     1  UNL1        0.0058
      4 C         139.8702  139.8386  162.7006 C.3     1  UNL1        0.0240
      5 C         140.1081  141.2277  162.1872 C.3     1  UNL1        0.0301
      6 C         139.7738  142.5362  162.8399 C.ar    1  UNL1       -0.0255
      7 C         140.1832  143.6969  161.9825 C.ar    1  UNL1       -0.0046
      8 C         139.9377  145.1000  162.4525 C.ar    1  UNL1       -0.0003
      9 C         139.2827  145.3424  163.7800 C.ar    1  UNL1       -0.0003
     10 C         138.8732  144.1818  164.6375 C.ar    1  UNL1       -0.0042
     11 C         139.1188  142.7787  164.1674 C.ar    1  UNL1       -0.0217
     12 C         138.6364  141.7725  165.1699 C.3     1  UNL1        0.0520
     13 C         138.6899  140.2755  165.0927 C.ar    1  UNL1       -0.0218
     14 C         138.0954  139.6420  166.3154 C.ar    1  UNL1       -0.0042
     15 C         138.0500  138.1478  166.4393 C.ar    1  UNL1       -0.0003
     16 C         138.5990  137.2871  165.3404 C.ar    1  UNL1       -0.0003
     17 C         139.1935  137.9206  164.1175 C.ar    1  UNL1       -0.0046
     18 C         139.2390  139.4148  163.9937 C.ar    1  UNL1       -0.0261
     19 C         140.5267  139.9987  161.3615 C.3     1  UNL1        0.0203
     20 C         142.3780  137.8846  157.6395 C.3     1  UNL1        0.0684
     21 C         142.7883  137.7704  159.0778 C.3     1  UNL1        0.0790
     22 N         141.4587  138.3211  159.5008 N.3     1  UNL1       -0.2732
     23 C         141.0484  138.4353  158.0625 C.3     1  UNL1        0.0790
     24 O         144.3950  138.1125  156.0178 O.co2   1  UNL1       -0.5491
     25 C         143.0281  137.5760  156.3234 C.2     1  UNL1        0.0527
     26 O         142.3110  136.7308  155.3127 O.co2   1  UNL1       -0.5491
@<TRIPOS>UNITY_ATOM_ATTR
24 1
charge -1
@<TRIPOS>BOND
     1    24    25   ar
     2    25    26   ar
     3    25    20    1
     4    20    21    1
     5    21    22    1
     6    22     1    1
     7     1     2    1
     8     2     3    1
     9     4     3    1
    10     4     5    1
    11     5     6    1
    12     6     7   ar
    13     7     8   ar
    14     8     9   ar
    15     9    10   ar
    16    10    11   ar
    17    11    12    1
    18    12    13    1
    19    13    14   ar
    20    14    15   ar
    21    15    16   ar
    22    16    17   ar
    23    17    18   ar
    24     4    19    1
    25    22    23    1
    26    23    20    1
    27    19     1    1
    28    18     4    1
    29    11     6   ar
    30    18    13   ar
@<TRIPOS>MOLECULE
*****
 26 30 0 0 0
SMALL
GASTEIGER

@<TRIPOS>ATOM
      1 C         139.6329  140.7001  160.1025 C.3     1  UNL1        0.0579
      2 C         138.4660  141.4297  160.6991 C.3     1  UNL1        0.0163
      3 C         138.9534  142.1756  161.9057 C.3     1  UNL1        0.0058
      4 C         140.4216  141.9070  162.0548 C.3     1  UNL1        0.0240
      5 C         141.8599  141.4872  161.9837 C.3     1  UNL1        0.0301
      6 C         142.9890  141.8584  162.8988 C.ar    1  UNL1       -0.0255
      7 C         144.2757  141.2185  162.4690 C.ar    1  UNL1       -0.0046
      8 C         145.5321  141.4614  163.2516 C.ar    1  UNL1       -0.0003
      9 C         145.5017  142.3442  164.4640 C.ar    1  UNL1       -0.0003
     10 C         144.2149  142.9840  164.8938 C.ar    1  UNL1       -0.0042
     11 C         142.9586  142.7411  164.1112 C.ar    1  UNL1       -0.0217
     12 C         141.7916  143.4707  164.7078 C.3     1  UNL1        0.0520
     13 C         140.3668  143.4977  164.2395 C.ar    1  UNL1       -0.0218
     14 C         139.5145  144.3562  165.1264 C.ar    1  UNL1       -0.0042
     15 C         138.0526  144.5187  164.8327 C.ar    1  UNL1       -0.0003
     16 C         137.4429  143.8229  163.6520 C.ar    1  UNL1       -0.0003
     17 C         138.2952  142.9644  162.7650 C.ar    1  UNL1       -0.0046
     18 C         139.7571  142.8018  163.0588 C.ar    1  UNL1       -0.0261
     19 C         140.8416  140.9951  160.9404 C.3     1  UNL1        0.0203
     20 C         139.5471  138.5960  157.1564 C.3     1  UNL1        0.0684
     21 C         139.0175  139.9555  157.5046 C.3     1  UNL1        0.0790
     22 N         139.5974  139.8286  158.8822 N.3     1  UNL1       -0.2732
     23 C         140.1270  138.4691  158.5340 C.3     1  UNL1        0.0790
     24 O         138.2313  137.0591  155.5266 O.co2   1  UNL1       -0.5491
     25 C         139.5117  137.7243  155.9362 C.2     1  UNL1        0.0527
     26 O         140.7568  137.5180  155.1255 O.co2   1  UNL1       -0.5491
@<TRIPOS>UNITY_ATOM_ATTR
24 1
charge -1
@<TRIPOS>BOND
     1    24    25   ar
     2    25    26   ar
     3    25    20    1
     4    20    21    1
     5    21    22    1
     6    22     1    1
     7     1     2    1
     8     2     3    1
     9     4     3    1
    10     4     5    1
    11     5     6    1
    12     6     7   ar
    13     7     8   ar
    14     8     9   ar
    15     9    10   ar
    16    10    11   ar
    17    11    12    1
    18    12    13    1
    19    13    14   ar
    20    14    15   ar
    21    15    16   ar
    22    16    17   ar
    23    17    18   ar
    24     4    19    1
    25    22    23    1
    26    23    20    1
    27    19     1    1
    28    18     4    1
    29    11     6   ar
    30    18    13   ar
@<TRIPOS>MOLECULE
*****
 26 30 0 0 0
SMALL
GASTEIGER

@<TRIPOS>ATOM
      1 C         140.7167  138.8300  161.2868 C.3     1  UNL1        0.0579
      2 C         139.6285  138.2646  162.1505 C.3     1  UNL1        0.0163
      3 C         139.7780  138.8466  163.5248 C.3     1  UNL1        0.0058
      4 C         140.9586  139.7718  163.5105 C.3     1  UNL1        0.0240
      5 C         142.1606  140.6265  163.2376 C.3     1  UNL1        0.0301
      6 C         142.9008  141.5282  164.1806 C.ar    1  UNL1       -0.0255
      7 C         144.0529  142.2059  163.5001 C.ar    1  UNL1       -0.0046
      8 C         144.9259  143.1532  164.2685 C.ar    1  UNL1       -0.0003
      9 C         144.6467  143.4228  165.7174 C.ar    1  UNL1       -0.0003
     10 C         143.4946  142.7450  166.3979 C.ar    1  UNL1       -0.0042
     11 C         142.6216  141.7977  165.6296 C.ar    1  UNL1       -0.0217
     12 C         141.5334  141.2322  166.4933 C.3     1  UNL1        0.0520
     13 C         140.4556  140.2575  166.1215 C.ar    1  UNL1       -0.0218
     14 C         139.5663  139.9517  167.2900 C.ar    1  UNL1       -0.0042
     15 C         138.4211  138.9959  167.1312 C.ar    1  UNL1       -0.0003
     16 C         138.1653  138.3460  165.8038 C.ar    1  UNL1       -0.0003
     17 C         139.0547  138.6518  164.6351 C.ar    1  UNL1       -0.0046
     18 C         140.1998  139.6076  164.7940 C.ar    1  UNL1       -0.0261
     19 C         141.5388  139.7616  162.1273 C.3     1  UNL1        0.0203
     20 C         141.2633  138.0783  157.7868 C.3     1  UNL1        0.0684
     21 C         140.0734  138.4605  158.6163 C.3     1  UNL1        0.0790
     22 N         140.9431  138.5187  159.8371 N.3     1  UNL1       -0.2732
     23 C         142.1330  138.1364  159.0075 C.3     1  UNL1        0.0790
     24 O         141.8025  138.8721  155.3724 O.co2   1  UNL1       -0.5491
     25 C         141.4898  137.7669  156.3370 C.2     1  UNL1        0.0527
     26 O         141.4035  136.3501  155.8519 O.co2   1  UNL1       -0.5491
@<TRIPOS>UNITY_ATOM_ATTR
24 1
charge -1
@<TRIPOS>BOND
     1    24    25   ar
     2    25    26   ar
     3    25    20    1
     4    20    21    1
     5    21    22    1
     6    22     1    1
     7     1     2    1
     8     2     3    1
     9     4     3    1
    10     4     5    1
    11     5     6    1
    12     6     7   ar
    13     7     8   ar
    14     8     9   ar
    15     9    10   ar
    16    10    11   ar
    17    11    12    1
    18    12    13    1
    19    13    14   ar
    20    14    15   ar
    21    15    16   ar
    22    16    17   ar
    23    17    18   ar
    24     4    19    1
    25    22    23    1
    26    23    20    1
    27    19     1    1
    28    18     4    1
    29    11     6   ar
    30    18    13   ar
@<TRIPOS>MOLECULE
*****
 26 30 0 0 0
SMALL
GASTEIGER

@<TRIPOS>ATOM
      1 C         141.6221  142.1312  166.1609 C.3     1  UNL1        0.0579
      2 C         142.8116  142.8039  165.5426 C.3     1  UNL1        0.0163
      3 C         142.8941  142.3733  164.1082 C.3     1  UNL1        0.0058
      4 C         141.7555  141.4343  163.8399 C.3     1  UNL1        0.0240
      5 C         140.5536  140.5369  163.8297 C.3     1  UNL1        0.0301
      6 C         139.9966  139.7325  162.6927 C.ar    1  UNL1       -0.0255
      7 C         138.7756  138.9672  163.1093 C.ar    1  UNL1       -0.0046
      8 C         138.0620  138.0964  162.1182 C.ar    1  UNL1       -0.0003
      9 C         138.5692  137.9909  160.7105 C.ar    1  UNL1       -0.0003
     10 C         139.7902  138.7562  160.2939 C.ar    1  UNL1       -0.0042
     11 C         140.5038  139.6270  161.2850 C.ar    1  UNL1       -0.0217
     12 C         141.6934  140.2998  160.6668 C.3     1  UNL1        0.0520
     13 C         142.6696  141.2442  161.3033 C.ar    1  UNL1       -0.0218
     14 C         143.7179  141.6892  160.3272 C.ar    1  UNL1       -0.0042
     15 C         144.7938  142.6391  160.7632 C.ar    1  UNL1       -0.0003
     16 C         144.8214  143.1440  162.1753 C.ar    1  UNL1       -0.0003
     17 C         143.7731  142.6990  163.1515 C.ar    1  UNL1       -0.0046
     18 C         142.6971  141.7491  162.7156 C.ar    1  UNL1       -0.0261
     19 C         140.9693  141.2847  165.1086 C.3     1  UNL1        0.0203
     20 C         140.5197  142.4880  169.5919 C.3     1  UNL1        0.0684
     21 C         140.2912  143.2493  168.3197 C.3     1  UNL1        0.0790
     22 N         141.1655  142.2790  167.5820 N.3     1  UNL1       -0.2732
     23 C         141.3939  141.5177  168.8541 C.3     1  UNL1        0.0790
     24 O         140.7494  141.8697  172.1048 O.co2   1  UNL1       -0.5491
     25 C         140.0631  142.6357  171.0130 C.2     1  UNL1        0.0527
     26 O         138.9200  143.5495  171.3424 O.co2   1  UNL1       -0.5491
@<TRIPOS>UNITY_ATOM_ATTR
24 1
charge -1
@<TRIPOS>BOND
     1    24    25   ar
     2    25    26   ar
     3    25    20    1
     4    20    21    1
     5    21    22    1
     6    22     1    1
     7     1     2    1
     8     2     3    1
     9     4     3    1
    10     4     5    1
    11     5     6    1
    12     6     7   ar
    13     7     8   ar
    14     8     9   ar
    15     9    10   ar
    16    10    11   ar
    17    11    12    1
    18    12    13    1
    19    13    14   ar
    20    14    15   ar
    21    15    16   ar
    22    16    17   ar
    23    17    18   ar
    24     4    19    1
    25    22    23    1
    26    23    20    1
    27    19     1    1
    28    18     4    1
    29    11     6   ar
    30    18    13   ar
