@<TRIPOS>MOLECULE
*****
 32 35 0 0 0
SMALL
GASTEIGER

@<TRIPOS>ATOM
      1 C         137.5888  138.4721  166.9689 C.3     1  UNL1        0.0523
      2 C         138.7132  138.8343  166.0445 C.3     1  UNL1        0.1898
      3 C         138.9569  140.2705  165.6866 C.ar    1  UNL1        0.0349
      4 C         138.2715  140.8735  164.4964 C.ar    1  UNL1        0.0018
      5 C         138.5153  142.3096  164.1385 C.ar    1  UNL1        0.0139
      6 C         139.4443  143.1427  164.9708 C.ar    1  UNL1        0.0027
      7 C         140.1297  142.5397  166.1610 C.ar    1  UNL1        0.0190
      8 C         139.8860  141.1036  166.5189 C.ar    1  UNL1        0.0822
      9 N         140.5714  140.5005  167.7092 N.ar    1  UNL1       -0.2283
     10 C         140.0054  140.3985  169.0945 C.ar    1  UNL1        0.1020
     11 C         141.0273  139.7285  169.9645 C.ar    1  UNL1        0.0431
     12 C         142.2249  139.4165  169.1168 C.ar    1  UNL1        0.1221
     13 N         141.9430  139.8936  167.7230 N.ar    1  UNL1       -0.1635
     14 C         137.8299  142.9127  162.9483 C.2     1  UNL1        0.0729
     15 O         137.3816  142.0358  161.8169 O.co2   1  UNL1       -0.5446
     16 O         137.5928  144.3927  162.8895 O.co2   1  UNL1       -0.5446
     17 O         139.5939  137.7603  165.4780 O.3     1  UNL1       -0.4719
     18 C         140.2932  137.9769  164.1688 C.ar    1  UNL1        0.1698
     19 C         139.5028  138.0218  162.8947 C.ar    1  UNL1        0.0414
     20 C         140.2021  138.2383  161.5855 C.ar    1  UNL1        0.0253
     21 C         139.4117  138.2832  160.3115 C.ar    1  UNL1        0.0314
     22 C         140.1110  138.4997  159.0022 C.ar    1  UNL1        0.1425
     23 F         139.3205  138.5446  157.7282 F       1  UNL1       -0.2041
     24 C         141.6007  138.6714  158.9670 C.ar    1  UNL1        0.0608
     25 C         142.3911  138.6266  160.2411 C.ar    1  UNL1        0.1599
     26 F         143.8808  138.7982  160.2060 F       1  UNL1       -0.2025
     27 C         141.6918  138.4100  161.5503 C.ar    1  UNL1        0.1104
     28 N         142.4823  138.3651  162.8244 N.ar    1  UNL1       -0.2257
     29 C         141.7830  138.1486  164.1337 C.ar    1  UNL1        0.1597
     30 N         142.5734  138.1037  165.4077 N.pl3   1  UNL1       -0.3402
     31 H         143.5511  138.2164  165.3846 H       1  UNL1        0.1438
     32 H         142.1144  137.9616  166.2670 H       1  UNL1        0.1438
@<TRIPOS>UNITY_ATOM_ATTR
15 1
charge -1
@<TRIPOS>BOND
     1     2     1    1
     2     2    17    1
     3    17    18    1
     4    18    19   ar
     5    19    20   ar
     6    20    21   ar
     7    21    22   ar
     8    22    23    1
     9    22    24   ar
    10    24    25   ar
    11    25    26    1
    12    25    27   ar
    13    27    28   ar
    14    28    29   ar
    15    29    30    1
    16     2     3    1
    17     3     4   ar
    18     4     5   ar
    19     5    14    1
    20    14    15   ar
    21    14    16   ar
    22     5     6   ar
    23     6     7   ar
    24     7     8   ar
    25     8     9    1
    26     9    10   ar
    27    10    11   ar
    28    11    12   ar
    29    12    13   ar
    30    29    18   ar
    31     8     3   ar
    32    13     9   ar
    33    27    20   ar
    34    30    31    1
    35    30    32    1
@<TRIPOS>MOLECULE
*****
 32 35 0 0 0
SMALL
GASTEIGER

@<TRIPOS>ATOM
      1 C         141.1685  142.7787  164.3477 C.3     1  UNL1        0.0523
      2 C         140.0057  142.2481  165.1328 C.3     1  UNL1        0.1898
      3 C         140.1736  141.9068  166.5839 C.ar    1  UNL1        0.0349
      4 C         140.4288  142.9939  167.5853 C.ar    1  UNL1        0.0018
      5 C         140.5966  142.6527  169.0363 C.ar    1  UNL1        0.0139
      6 C         140.5094  141.2243  169.4857 C.ar    1  UNL1        0.0027
      7 C         140.2543  140.1371  168.4843 C.ar    1  UNL1        0.0190
      8 C         140.0864  140.4784  167.0333 C.ar    1  UNL1        0.0822
      9 N         139.8312  139.3912  166.0318 N.ar    1  UNL1       -0.2283
     10 C         138.4991  138.7785  165.7158 C.ar    1  UNL1        0.1020
     11 C         138.7080  137.7345  164.6591 C.ar    1  UNL1        0.0431
     12 C         140.1693  137.7021  164.3220 C.ar    1  UNL1        0.1221
     13 N         140.8635  138.7260  165.1704 N.ar    1  UNL1       -0.1635
     14 C         140.8518  143.7398  170.0378 C.2     1  UNL1        0.0729
     15 O         142.1883  143.8406  170.7112 O.co2   1  UNL1       -0.5446
     16 O         139.7704  144.7262  170.3660 O.co2   1  UNL1       -0.5446
     17 O         138.6750  142.0587  164.4670 O.3     1  UNL1       -0.4719
     18 C         138.5966  141.9100  162.9764 C.ar    1  UNL1        0.1698
     19 C         139.0528  140.6385  162.3244 C.ar    1  UNL1        0.0414
     20 C         138.9744  140.4898  160.8339 C.ar    1  UNL1        0.0253
     21 C         139.4306  139.2183  160.1820 C.ar    1  UNL1        0.0314
     22 C         139.3522  139.0696  158.6914 C.ar    1  UNL1        0.1425
     23 F         139.8085  137.7981  158.0395 F       1  UNL1       -0.2041
     24 C         138.8175  140.1925  157.8528 C.ar    1  UNL1        0.0608
     25 C         138.3613  141.4641  158.5048 C.ar    1  UNL1        0.1599
     26 F         137.8266  142.5870  157.6662 F       1  UNL1       -0.2025
     27 C         138.4397  141.6127  159.9953 C.ar    1  UNL1        0.1104
     28 N         137.9835  142.8842  160.6472 N.ar    1  UNL1       -0.2257
     29 C         138.0619  143.0329  162.1378 C.ar    1  UNL1        0.1597
     30 N         137.6056  144.3044  162.7897 N.pl3   1  UNL1       -0.3402
     31 H         137.2547  145.0414  162.2393 H       1  UNL1        0.1438
     32 H         137.6571  144.4020  163.7680 H       1  UNL1        0.1438
@<TRIPOS>UNITY_ATOM_ATTR
15 1
charge -1
@<TRIPOS>BOND
     1     2     1    1
     2     2    17    1
     3    17    18    1
     4    18    19   ar
     5    19    20   ar
     6    20    21   ar
     7    21    22   ar
     8    22    23    1
     9    22    24   ar
    10    24    25   ar
    11    25    26    1
    12    25    27   ar
    13    27    28   ar
    14    28    29   ar
    15    29    30    1
    16     2     3    1
    17     3     4   ar
    18     4     5   ar
    19     5    14    1
    20    14    15   ar
    21    14    16   ar
    22     5     6   ar
    23     6     7   ar
    24     7     8   ar
    25     8     9    1
    26     9    10   ar
    27    10    11   ar
    28    11    12   ar
    29    12    13   ar
    30    29    18   ar
    31     8     3   ar
    32    13     9   ar
    33    27    20   ar
    34    30    31    1
    35    30    32    1
@<TRIPOS>MOLECULE
*****
 32 35 0 0 0
SMALL
GASTEIGER

@<TRIPOS>ATOM
      1 C         142.1231  142.1567  164.9027 C.3     1  UNL1        0.0523
      2 C         140.8265  142.5855  165.5231 C.3     1  UNL1        0.1898
      3 C         140.3616  141.9535  166.8016 C.ar    1  UNL1        0.0349
      4 C         140.4703  142.7074  168.0938 C.ar    1  UNL1        0.0018
      5 C         140.0054  142.0754  169.3722 C.ar    1  UNL1        0.0139
      6 C         139.4318  140.6895  169.3585 C.ar    1  UNL1        0.0027
      7 C         139.3230  139.9356  168.0663 C.ar    1  UNL1        0.0190
      8 C         139.7880  140.5676  166.7879 C.ar    1  UNL1        0.0822
      9 N         139.6793  139.8136  165.4956 N.ar    1  UNL1       -0.2283
     10 C         138.4984  139.8151  164.5706 C.ar    1  UNL1        0.1020
     11 C         138.8217  138.9283  163.4049 C.ar    1  UNL1        0.0431
     12 C         140.2024  138.3787  163.6094 C.ar    1  UNL1        0.1221
     13 N         140.7324  138.9259  164.9015 N.ar    1  UNL1       -0.1635
     14 C         140.1141  142.8294  170.6645 C.2     1  UNL1        0.0729
     15 O         140.5581  142.1220  171.9104 O.co2   1  UNL1       -0.5446
     16 O         139.7787  144.2907  170.7107 O.co2   1  UNL1       -0.5446
     17 O         139.9948  143.6463  164.8651 O.3     1  UNL1       -0.4719
     18 C         139.9923  143.7780  163.3709 C.ar    1  UNL1        0.1698
     19 C         139.2168  142.8047  162.5335 C.ar    1  UNL1        0.0414
     20 C         139.2143  142.9365  161.0393 C.ar    1  UNL1        0.0253
     21 C         138.4388  141.9632  160.2019 C.ar    1  UNL1        0.0314
     22 C         138.4362  142.0949  158.7077 C.ar    1  UNL1        0.1425
     23 F         137.6607  141.1216  157.8703 F       1  UNL1       -0.2041
     24 C         139.2092  143.1999  158.0509 C.ar    1  UNL1        0.0608
     25 C         139.9848  144.1732  158.8883 C.ar    1  UNL1        0.1599
     26 F         140.7578  145.2783  158.2316 F       1  UNL1       -0.2025
     27 C         139.9873  144.0415  160.3825 C.ar    1  UNL1        0.1104
     28 N         140.7628  145.0148  161.2199 N.ar    1  UNL1       -0.2257
     29 C         140.7653  144.8831  162.7141 C.ar    1  UNL1        0.1597
     30 N         141.5408  145.8564  163.5515 N.pl3   1  UNL1       -0.3402
     31 H         142.0481  146.5816  163.1204 H       1  UNL1        0.1438
     32 H         141.5424  145.7699  164.5322 H       1  UNL1        0.1438
@<TRIPOS>UNITY_ATOM_ATTR
15 1
charge -1
@<TRIPOS>BOND
     1     2     1    1
     2     2    17    1
     3    17    18    1
     4    18    19   ar
     5    19    20   ar
     6    20    21   ar
     7    21    22   ar
     8    22    23    1
     9    22    24   ar
    10    24    25   ar
    11    25    26    1
    12    25    27   ar
    13    27    28   ar
    14    28    29   ar
    15    29    30    1
    16     2     3    1
    17     3     4   ar
    18     4     5   ar
    19     5    14    1
    20    14    15   ar
    21    14    16   ar
    22     5     6   ar
    23     6     7   ar
    24     7     8   ar
    25     8     9    1
    26     9    10   ar
    27    10    11   ar
    28    11    12   ar
    29    12    13   ar
    30    29    18   ar
    31     8     3   ar
    32    13     9   ar
    33    27    20   ar
    34    30    31    1
    35    30    32    1
@<TRIPOS>MOLECULE
*****
 32 35 0 0 0
SMALL
GASTEIGER

@<TRIPOS>ATOM
      1 C         143.6707  138.3361  166.1576 C.3     1  UNL1        0.0523
      2 C         142.9391  139.6387  166.2921 C.3     1  UNL1        0.1898
      3 C         141.5154  139.6540  166.7644 C.ar    1  UNL1        0.0349
      4 C         141.1989  140.0374  168.1796 C.ar    1  UNL1        0.0018
      5 C         139.7753  140.0528  168.6519 C.ar    1  UNL1        0.0139
      6 C         138.6682  139.6847  167.7090 C.ar    1  UNL1        0.0027
      7 C         138.9848  139.3014  166.2938 C.ar    1  UNL1        0.0190
      8 C         140.4084  139.2860  165.8215 C.ar    1  UNL1        0.0822
      9 N         140.7251  138.9026  164.4063 N.ar    1  UNL1       -0.2283
     10 C         140.6140  139.7944  163.2053 C.ar    1  UNL1        0.1020
     11 C         141.0286  139.0030  162.0004 C.ar    1  UNL1        0.0431
     12 C         141.3960  137.6221  162.4567 C.ar    1  UNL1        0.1221
     13 N         141.2084  137.5601  163.9437 N.ar    1  UNL1       -0.1635
     14 C         139.4586  140.4362  170.0671 C.2     1  UNL1        0.0729
     15 O         139.2103  141.8734  170.4171 O.co2   1  UNL1       -0.5446
     16 O         139.3904  139.3823  171.1323 O.co2   1  UNL1       -0.5446
     17 O         143.6311  140.9259  165.9542 O.3     1  UNL1       -0.4719
     18 C         143.2980  141.6447  164.6805 C.ar    1  UNL1        0.1698
     19 C         142.3044  142.7684  164.6912 C.ar    1  UNL1        0.0414
     20 C         141.9712  143.4871  163.4175 C.ar    1  UNL1        0.0253
     21 C         140.9776  144.6107  163.4283 C.ar    1  UNL1        0.0314
     22 C         140.6445  145.3296  162.1545 C.ar    1  UNL1        0.1425
     23 F         139.6509  146.4532  162.1653 F       1  UNL1       -0.2041
     24 C         141.3049  144.9247  160.8701 C.ar    1  UNL1        0.0608
     25 C         142.2986  143.8010  160.8594 C.ar    1  UNL1        0.1599
     26 F         142.9591  143.3961  159.5749 F       1  UNL1       -0.2025
     27 C         142.6317  143.0822  162.1331 C.ar    1  UNL1        0.1104
     28 N         143.6253  141.9586  162.1223 N.ar    1  UNL1       -0.2257
     29 C         143.9585  141.2398  163.3961 C.ar    1  UNL1        0.1597
     30 N         144.9521  140.1161  163.3853 N.pl3   1  UNL1       -0.3402
     31 H         145.3856  139.8504  162.5423 H       1  UNL1        0.1438
     32 H         145.1707  139.6444  164.2213 H       1  UNL1        0.1438
@<TRIPOS>UNITY_ATOM_ATTR
15 1
charge -1
@<TRIPOS>BOND
     1     2     1    1
     2     2    17    1
     3    17    18    1
     4    18    19   ar
     5    19    20   ar
     6    20    21   ar
     7    21    22   ar
     8    22    23    1
     9    22    24   ar
    10    24    25   ar
    11    25    26    1
    12    25    27   ar
    13    27    28   ar
    14    28    29   ar
    15    29    30    1
    16     2     3    1
    17     3     4   ar
    18     4     5   ar
    19     5    14    1
    20    14    15   ar
    21    14    16   ar
    22     5     6   ar
    23     6     7   ar
    24     7     8   ar
    25     8     9    1
    26     9    10   ar
    27    10    11   ar
    28    11    12   ar
    29    12    13   ar
    30    29    18   ar
    31     8     3   ar
    32    13     9   ar
    33    27    20   ar
    34    30    31    1
    35    30    32    1
@<TRIPOS>MOLECULE
*****
 32 35 0 0 0
SMALL
GASTEIGER

@<TRIPOS>ATOM
      1 C         138.8725  137.4523  165.0944 C.3     1  UNL1        0.0523
      2 C         138.8100  138.9178  165.4079 C.3     1  UNL1        0.1898
      3 C         139.7331  139.5053  166.4341 C.ar    1  UNL1        0.0349
      4 C         139.2303  139.7936  167.8176 C.ar    1  UNL1        0.0018
      5 C         140.1533  140.3810  168.8437 C.ar    1  UNL1        0.0139
      6 C         141.5791  140.6802  168.4863 C.ar    1  UNL1        0.0027
      7 C         142.0818  140.3920  167.1028 C.ar    1  UNL1        0.0190
      8 C         141.1588  139.8045  166.0767 C.ar    1  UNL1        0.0822
      9 N         141.6615  139.5162  164.6931 N.ar    1  UNL1       -0.2283
     10 C         142.1797  138.1977  164.2002 C.ar    1  UNL1        0.1020
     11 C         142.5727  138.3624  162.7620 C.ar    1  UNL1        0.0431
     12 C         142.2975  139.7829  162.3660 C.ar    1  UNL1        0.1221
     13 N         141.7343  140.4959  163.5595 N.ar    1  UNL1       -0.1635
     14 C         139.6506  140.6693  170.2272 C.2     1  UNL1        0.0729
     15 O         139.4251  139.5439  171.1929 O.co2   1  UNL1       -0.5446
     16 O         139.3734  142.0830  170.6451 O.co2   1  UNL1       -0.5446
     17 O         137.8246  139.7959  164.6952 O.3     1  UNL1       -0.4719
     18 C         138.2837  140.6860  163.5786 C.ar    1  UNL1        0.1698
     19 C         138.5772  142.1328  163.8449 C.ar    1  UNL1        0.0414
     20 C         139.0362  143.0228  162.7283 C.ar    1  UNL1        0.0253
     21 C         139.3297  144.4695  162.9946 C.ar    1  UNL1        0.0314
     22 C         139.7888  145.3597  161.8780 C.ar    1  UNL1        0.1425
     23 F         140.0822  146.8063  162.1443 F       1  UNL1       -0.2041
     24 C         139.9544  144.8031  160.4949 C.ar    1  UNL1        0.0608
     25 C         139.6609  143.3563  160.2286 C.ar    1  UNL1        0.1599
     26 F         139.8265  142.7997  158.8455 F       1  UNL1       -0.2025
     27 C         139.2018  142.4662  161.3452 C.ar    1  UNL1        0.1104
     28 N         138.9084  141.0196  161.0788 N.ar    1  UNL1       -0.2257
     29 C         138.4493  140.1294  162.1955 C.ar    1  UNL1        0.1597
     30 N         138.1559  138.6827  161.9292 N.pl3   1  UNL1       -0.3402
     31 H         138.2646  138.3175  161.0214 H       1  UNL1        0.1438
     32 H         137.8546  138.0985  162.6621 H       1  UNL1        0.1438
@<TRIPOS>UNITY_ATOM_ATTR
15 1
charge -1
@<TRIPOS>BOND
     1     2     1    1
     2     2    17    1
     3    17    18    1
     4    18    19   ar
     5    19    20   ar
     6    20    21   ar
     7    21    22   ar
     8    22    23    1
     9    22    24   ar
    10    24    25   ar
    11    25    26    1
    12    25    27   ar
    13    27    28   ar
    14    28    29   ar
    15    29    30    1
    16     2     3    1
    17     3     4   ar
    18     4     5   ar
    19     5    14    1
    20    14    15   ar
    21    14    16   ar
    22     5     6   ar
    23     6     7   ar
    24     7     8   ar
    25     8     9    1
    26     9    10   ar
    27    10    11   ar
    28    11    12   ar
    29    12    13   ar
    30    29    18   ar
    31     8     3   ar
    32    13     9   ar
    33    27    20   ar
    34    30    31    1
    35    30    32    1
@<TRIPOS>MOLECULE
*****
 32 35 0 0 0
SMALL
GASTEIGER

@<TRIPOS>ATOM
      1 C         143.2038  142.4409  165.7358 C.3     1  UNL1        0.0523
      2 C         141.7074  142.5175  165.8048 C.3     1  UNL1        0.1898
      3 C         140.9800  141.9357  166.9806 C.ar    1  UNL1        0.0349
      4 C         140.8746  142.7151  168.2579 C.ar    1  UNL1        0.0018
      5 C         140.1473  142.1333  169.4336 C.ar    1  UNL1        0.0139
      6 C         139.5253  140.7721  169.3321 C.ar    1  UNL1        0.0027
      7 C         139.6308  139.9927  168.0549 C.ar    1  UNL1        0.0190
      8 C         140.3581  140.5745  166.8791 C.ar    1  UNL1        0.0822
      9 N         140.4635  139.7951  165.6018 N.ar    1  UNL1       -0.2283
     10 C         141.6141  138.9240  165.1929 C.ar    1  UNL1        0.1020
     11 C         141.2986  138.3405  163.8476 C.ar    1  UNL1        0.0431
     12 C         139.9529  138.8511  163.4250 C.ar    1  UNL1        0.1221
     13 N         139.4368  139.7501  164.5091 N.ar    1  UNL1       -0.1635
     14 C         140.0418  142.9127  170.7109 C.2     1  UNL1        0.0729
     15 O         140.3464  142.2496  172.0215 O.co2   1  UNL1       -0.5446
     16 O         139.6319  144.3552  170.6776 O.co2   1  UNL1       -0.5446
     17 O         140.9383  143.1760  164.6980 O.3     1  UNL1       -0.4719
     18 C         141.4587  143.1292  163.2921 C.ar    1  UNL1        0.1698
     19 C         141.7128  141.8074  162.6299 C.ar    1  UNL1        0.0414
     20 C         142.2333  141.7607  161.2239 C.ar    1  UNL1        0.0253
     21 C         142.4874  140.4390  160.5618 C.ar    1  UNL1        0.0314
     22 C         143.0079  140.3922  159.1558 C.ar    1  UNL1        0.1425
     23 F         143.2620  139.0704  158.4937 F       1  UNL1       -0.2041
     24 C         143.2743  141.6672  158.4118 C.ar    1  UNL1        0.0608
     25 C         143.0202  142.9889  159.0740 C.ar    1  UNL1        0.1599
     26 F         143.2866  144.2639  158.3301 F       1  UNL1       -0.2025
     27 C         142.4997  143.0357  160.4800 C.ar    1  UNL1        0.1104
     28 N         142.2456  144.3574  161.1421 N.ar    1  UNL1       -0.2257
     29 C         141.7251  144.4042  162.5481 C.ar    1  UNL1        0.1597
     30 N         141.4710  145.7260  163.2102 N.pl3   1  UNL1       -0.3402
     31 H         141.6459  146.5628  162.7219 H       1  UNL1        0.1438
     32 H         141.1294  145.7567  164.1330 H       1  UNL1        0.1438
@<TRIPOS>UNITY_ATOM_ATTR
15 1
charge -1
@<TRIPOS>BOND
     1     2     1    1
     2     2    17    1
     3    17    18    1
     4    18    19   ar
     5    19    20   ar
     6    20    21   ar
     7    21    22   ar
     8    22    23    1
     9    22    24   ar
    10    24    25   ar
    11    25    26    1
    12    25    27   ar
    13    27    28   ar
    14    28    29   ar
    15    29    30    1
    16     2     3    1
    17     3     4   ar
    18     4     5   ar
    19     5    14    1
    20    14    15   ar
    21    14    16   ar
    22     5     6   ar
    23     6     7   ar
    24     7     8   ar
    25     8     9    1
    26     9    10   ar
    27    10    11   ar
    28    11    12   ar
    29    12    13   ar
    30    29    18   ar
    31     8     3   ar
    32    13     9   ar
    33    27    20   ar
    34    30    31    1
    35    30    32    1
@<TRIPOS>MOLECULE
*****
 32 35 0 0 0
SMALL
GASTEIGER

@<TRIPOS>ATOM
      1 C         138.9569  142.6740  164.4529 C.3     1  UNL1        0.0523
      2 C         140.2101  142.3034  165.1893 C.3     1  UNL1        0.1898
      3 C         140.1322  141.8251  166.6089 C.ar    1  UNL1        0.0349
      4 C         140.2458  142.8059  167.7381 C.ar    1  UNL1        0.0018
      5 C         140.1679  142.3275  169.1576 C.ar    1  UNL1        0.0139
      6 C         139.9764  140.8684  169.4479 C.ar    1  UNL1        0.0027
      7 C         139.8627  139.8877  168.3188 C.ar    1  UNL1        0.0190
      8 C         139.9406  140.3660  166.8992 C.ar    1  UNL1        0.0822
      9 N         139.8269  139.3852  165.7700 N.ar    1  UNL1       -0.2283
     10 C         138.6143  139.1603  164.9162 C.ar    1  UNL1        0.1020
     11 C         138.9439  138.0933  163.9148 C.ar    1  UNL1        0.0431
     12 C         140.3602  137.6587  164.1497 C.ar    1  UNL1        0.1221
     13 N         140.9059  138.4571  165.2962 N.ar    1  UNL1       -0.1635
     14 C         140.2816  143.3083  170.2869 C.2     1  UNL1        0.0729
     15 O         141.5216  144.1389  170.4370 O.co2   1  UNL1       -0.5446
     16 O         139.1552  143.4585  171.2661 O.co2   1  UNL1       -0.5446
     17 O         141.5411  142.4112  164.5062 O.3     1  UNL1       -0.4719
     18 C         142.0048  141.3176  163.5902 C.ar    1  UNL1        0.1698
     19 C         141.3960  141.1726  162.2269 C.ar    1  UNL1        0.0414
     20 C         141.8596  140.0790  161.3110 C.ar    1  UNL1        0.0253
     21 C         141.2509  139.9341  159.9478 C.ar    1  UNL1        0.0314
     22 C         141.7145  138.8405  159.0317 C.ar    1  UNL1        0.1425
     23 F         141.1057  138.6955  157.6685 F       1  UNL1       -0.2041
     24 C         142.7869  137.8918  159.4789 C.ar    1  UNL1        0.0608
     25 C         143.3957  138.0368  160.8422 C.ar    1  UNL1        0.1599
     26 F         144.4681  137.0882  161.2894 F       1  UNL1       -0.2025
     27 C         142.9321  139.1304  161.7582 C.ar    1  UNL1        0.1104
     28 N         143.5408  139.2753  163.1214 N.ar    1  UNL1       -0.2257
     29 C         143.0772  140.3690  164.0374 C.ar    1  UNL1        0.1597
     30 N         143.6860  140.5139  165.4006 N.pl3   1  UNL1       -0.3402
     31 H         144.3898  139.8913  165.6941 H       1  UNL1        0.1438
     32 H         143.3817  141.2317  166.0018 H       1  UNL1        0.1438
@<TRIPOS>UNITY_ATOM_ATTR
15 1
charge -1
@<TRIPOS>BOND
     1     2     1    1
     2     2    17    1
     3    17    18    1
     4    18    19   ar
     5    19    20   ar
     6    20    21   ar
     7    21    22   ar
     8    22    23    1
     9    22    24   ar
    10    24    25   ar
    11    25    26    1
    12    25    27   ar
    13    27    28   ar
    14    28    29   ar
    15    29    30    1
    16     2     3    1
    17     3     4   ar
    18     4     5   ar
    19     5    14    1
    20    14    15   ar
    21    14    16   ar
    22     5     6   ar
    23     6     7   ar
    24     7     8   ar
    25     8     9    1
    26     9    10   ar
    27    10    11   ar
    28    11    12   ar
    29    12    13   ar
    30    29    18   ar
    31     8     3   ar
    32    13     9   ar
    33    27    20   ar
    34    30    31    1
    35    30    32    1
@<TRIPOS>MOLECULE
*****
 32 35 0 0 0
SMALL
GASTEIGER

@<TRIPOS>ATOM
      1 C         139.5833  143.4413  164.9709 C.3     1  UNL1        0.0523
      2 C         139.9467  142.1914  165.7163 C.3     1  UNL1        0.1898
      3 C         140.8562  142.2658  166.9069 C.ar    1  UNL1        0.0349
      4 C         140.2788  142.4038  168.2844 C.ar    1  UNL1        0.0018
      5 C         141.1883  142.4781  169.4748 C.ar    1  UNL1        0.0139
      6 C         142.6752  142.4145  169.2878 C.ar    1  UNL1        0.0027
      7 C         143.2526  142.2764  167.9103 C.ar    1  UNL1        0.0190
      8 C         142.3431  142.2021  166.7199 C.ar    1  UNL1        0.0822
      9 N         142.9205  142.0641  165.3423 N.ar    1  UNL1       -0.2283
     10 C         143.6022  140.8475  164.7898 C.ar    1  UNL1        0.1020
     11 C         144.0206  141.1499  163.3815 C.ar    1  UNL1        0.0431
     12 C         143.5975  142.5535  163.0635 C.ar    1  UNL1        0.1221
     13 N         142.9176  143.1184  164.2753 N.ar    1  UNL1       -0.1635
     14 C         140.6109  142.6162  170.8524 C.2     1  UNL1        0.0729
     15 O         141.3701  142.1008  172.0389 O.co2   1  UNL1       -0.5446
     16 O         139.2742  143.2696  171.0433 O.co2   1  UNL1       -0.5446
     17 O         139.4006  140.8671  165.2713 O.3     1  UNL1       -0.4719
     18 C         139.4033  140.5058  163.8155 C.ar    1  UNL1        0.1698
     19 C         140.6274  139.8998  163.1954 C.ar    1  UNL1        0.0414
     20 C         140.6301  139.5384  161.7396 C.ar    1  UNL1        0.0253
     21 C         141.8542  138.9324  161.1196 C.ar    1  UNL1        0.0314
     22 C         141.8569  138.5710  159.6637 C.ar    1  UNL1        0.1425
     23 F         143.0810  137.9650  159.0437 F       1  UNL1       -0.2041
     24 C         140.6356  138.8156  158.8280 C.ar    1  UNL1        0.0608
     25 C         139.4115  139.4216  159.4480 C.ar    1  UNL1        0.1599
     26 F         138.1902  139.6662  158.6123 F       1  UNL1       -0.2025
     27 C         139.4088  139.7830  160.9038 C.ar    1  UNL1        0.1104
     28 N         138.1848  140.3890  161.5238 N.ar    1  UNL1       -0.2257
     29 C         138.1820  140.7504  162.9797 C.ar    1  UNL1        0.1597
     30 N         136.9580  141.3563  163.5997 N.pl3   1  UNL1       -0.3402
     31 H         136.1564  141.5169  163.0511 H       1  UNL1        0.1438
     32 H         136.9561  141.5935  164.5552 H       1  UNL1        0.1438
@<TRIPOS>UNITY_ATOM_ATTR
15 1
charge -1
@<TRIPOS>BOND
     1     2     1    1
     2     2    17    1
     3    17    18    1
     4    18    19   ar
     5    19    20   ar
     6    20    21   ar
     7    21    22   ar
     8    22    23    1
     9    22    24   ar
    10    24    25   ar
    11    25    26    1
    12    25    27   ar
    13    27    28   ar
    14    28    29   ar
    15    29    30    1
    16     2     3    1
    17     3     4   ar
    18     4     5   ar
    19     5    14    1
    20    14    15   ar
    21    14    16   ar
    22     5     6   ar
    23     6     7   ar
    24     7     8   ar
    25     8     9    1
    26     9    10   ar
    27    10    11   ar
    28    11    12   ar
    29    12    13   ar
    30    29    18   ar
    31     8     3   ar
    32    13     9   ar
    33    27    20   ar
    34    30    31    1
    35    30    32    1
@<TRIPOS>MOLECULE
*****
 32 35 0 0 0
SMALL
GASTEIGER

@<TRIPOS>ATOM
      1 C         138.6226  139.0123  162.3056 C.3     1  UNL1        0.0523
      2 C         139.8247  139.7058  162.8747 C.3     1  UNL1        0.1898
      3 C         140.3031  140.9934  162.2719 C.ar    1  UNL1        0.0349
      4 C         139.5605  142.2687  162.5403 C.ar    1  UNL1        0.0018
      5 C         140.0389  143.5562  161.9375 C.ar    1  UNL1        0.0139
      6 C         141.2600  143.5684  161.0663 C.ar    1  UNL1        0.0027
      7 C         142.0026  142.2931  160.7980 C.ar    1  UNL1        0.0190
      8 C         141.5242  141.0056  161.4008 C.ar    1  UNL1        0.0822
      9 N         142.2668  139.7302  161.1324 N.ar    1  UNL1       -0.2283
     10 C         143.4690  139.2358  161.8808 C.ar    1  UNL1        0.1020
     11 C         143.8828  137.9253  161.2795 C.ar    1  UNL1        0.0431
     12 C         142.9362  137.6099  160.1594 C.ar    1  UNL1        0.1221
     13 N         141.9375  138.7253  160.0685 N.ar    1  UNL1       -0.1635
     14 C         139.2963  144.8316  162.2058 C.2     1  UNL1        0.0729
     15 O         137.8343  144.7924  162.5389 O.co2   1  UNL1       -0.5446
     16 O         140.0157  146.1462  162.1410 O.co2   1  UNL1       -0.5446
     17 O         140.5485  139.1118  164.0466 O.3     1  UNL1       -0.4719
     18 C         140.1933  139.5358  165.4409 C.ar    1  UNL1        0.1698
     19 C         140.8575  140.7335  166.0528 C.ar    1  UNL1        0.0414
     20 C         140.5023  141.1575  167.4471 C.ar    1  UNL1        0.0253
     21 C         141.1666  142.3551  168.0589 C.ar    1  UNL1        0.0314
     22 C         140.8114  142.7791  169.4532 C.ar    1  UNL1        0.1425
     23 F         141.4757  143.9767  170.0651 F       1  UNL1       -0.2041
     24 C         139.7920  142.0055  170.2357 C.ar    1  UNL1        0.0608
     25 C         139.1277  140.8078  169.6237 C.ar    1  UNL1        0.1599
     26 F         138.1082  140.0342  170.4061 F       1  UNL1       -0.2025
     27 C         139.4829  140.3839  168.2295 C.ar    1  UNL1        0.1104
     28 N         138.8186  139.1862  167.6176 N.ar    1  UNL1       -0.2257
     29 C         139.1738  138.7622  166.2233 C.ar    1  UNL1        0.1597
     30 N         138.5095  137.5646  165.6114 N.pl3   1  UNL1       -0.3402
     31 H         137.8404  137.0568  166.1250 H       1  UNL1        0.1438
     32 H         138.7426  137.2863  164.6963 H       1  UNL1        0.1438
@<TRIPOS>UNITY_ATOM_ATTR
15 1
charge -1
@<TRIPOS>BOND
     1     2     1    1
     2     2    17    1
     3    17    18    1
     4    18    19   ar
     5    19    20   ar
     6    20    21   ar
     7    21    22   ar
     8    22    23    1
     9    22    24   ar
    10    24    25   ar
    11    25    26    1
    12    25    27   ar
    13    27    28   ar
    14    28    29   ar
    15    29    30    1
    16     2     3    1
    17     3     4   ar
    18     4     5   ar
    19     5    14    1
    20    14    15   ar
    21    14    16   ar
    22     5     6   ar
    23     6     7   ar
    24     7     8   ar
    25     8     9    1
    26     9    10   ar
    27    10    11   ar
    28    11    12   ar
    29    12    13   ar
    30    29    18   ar
    31     8     3   ar
    32    13     9   ar
    33    27    20   ar
    34    30    31    1
    35    30    32    1
