@<TRIPOS>MOLECULE
*****
 28 30 0 0 0
SMALL
GASTEIGER

@<TRIPOS>ATOM
      1 C         145.2506  141.9649  162.9175 C.3     1  UNL1        0.0896
      2 N         144.4189  141.7193  164.1414 N.3     1  UNL1       -0.2715
      3 C         144.2454  142.8059  165.1608 C.3     1  UNL1        0.0725
      4 C         143.4137  142.5603  166.3847 C.3     1  UNL1        0.0239
      5 C         142.7556  141.2281  166.5893 C.3     1  UNL1        0.0511
      6 C         142.9291  140.1414  165.5700 C.3     1  UNL1        0.0239
      7 C         143.7608  140.3870  164.3460 C.3     1  UNL1        0.0725
      8 C         142.2984  141.9376  167.8293 C.ar    1  UNL1        0.0071
      9 C         143.1480  141.9109  169.0652 C.ar    1  UNL1       -0.0020
     10 C         142.6908  142.6204  170.3051 C.ar    1  UNL1       -0.0002
     11 C         141.3839  143.3567  170.3092 C.ar    1  UNL1        0.0023
     12 C         140.5343  143.3834  169.0733 C.ar    1  UNL1        0.0293
     13 C         140.9915  142.6739  167.8333 C.ar    1  UNL1        0.1362
     14 F         140.1419  142.7006  166.5975 F       1  UNL1       -0.2045
     15 C         141.9386  140.1422  167.2246 C.3     1  UNL1        0.1467
     16 O         141.0946  139.2422  166.3716 O.3     1  UNL1       -0.3470
     17 C         139.6107  139.4504  166.3014 C.3     1  UNL1        0.1875
     18 C         138.9696  139.8475  165.0048 C.ar    1  UNL1        0.0897
     19 C         138.6046  141.2811  164.7567 C.ar    1  UNL1        0.0212
     20 C         137.9635  141.6781  163.4600 C.ar    1  UNL1        0.0750
     21 C         137.6873  140.6416  162.4116 C.ar    1  UNL1        0.0346
     22 C         138.0522  139.2080  162.6597 C.ar    1  UNL1        0.1380
     23 CL        137.7761  138.1715  161.6112 Cl      1  UNL1       -0.0614
     24 N         138.6934  138.8109  163.9563 N.ar    1  UNL1       -0.2358
     25 C         137.5985  143.1118  163.2118 C.3     1  UNL1        0.4187
     26 F         137.2335  144.5453  162.9637 F       1  UNL1       -0.1659
     27 F         137.5817  143.3634  164.6905 F       1  UNL1       -0.1659
     28 F         137.6154  142.8601  161.7332 F       1  UNL1       -0.1659
@<TRIPOS>BOND
     1     1     2    1
     2     2     3    1
     3     3     4    1
     4     4     5    1
     5     5    15    1
     6    15    16    1
     7    16    17    1
     8    17    18    1
     9    18    19   ar
    10    19    20   ar
    11    20    25    1
    12    25    26    1
    13    25    27    1
    14    25    28    1
    15    20    21   ar
    16    21    22   ar
    17    22    23    1
    18    22    24   ar
    19     5     8    1
    20     8     9   ar
    21     9    10   ar
    22    10    11   ar
    23    11    12   ar
    24    12    13   ar
    25    13    14    1
    26     5     6    1
    27     6     7    1
    28     7     2    1
    29    24    18   ar
    30    13     8   ar
@<TRIPOS>MOLECULE
*****
 28 30 0 0 0
SMALL
GASTEIGER

@<TRIPOS>ATOM
      1 C         140.8859  141.7791  170.9060 C.3     1  UNL1        0.0896
      2 N         141.2690  141.8682  169.4585 N.3     1  UNL1       -0.2715
      3 C         142.4497  141.0977  168.9464 C.3     1  UNL1        0.0725
      4 C         142.8328  141.1868  167.4989 C.3     1  UNL1        0.0239
      5 C         142.0353  142.0464  166.5635 C.3     1  UNL1        0.0511
      6 C         140.8547  142.8170  167.0756 C.3     1  UNL1        0.0239
      7 C         140.4715  142.7278  168.5231 C.3     1  UNL1        0.0725
      8 C         143.0630  141.5097  165.6117 C.ar    1  UNL1        0.0071
      9 C         142.9517  140.1032  165.1027 C.ar    1  UNL1       -0.0020
     10 C         143.9793  139.5664  164.1509 C.ar    1  UNL1       -0.0002
     11 C         145.1183  140.4363  163.7082 C.ar    1  UNL1        0.0023
     12 C         145.2297  141.8429  164.2172 C.ar    1  UNL1        0.0293
     13 C         144.2020  142.3796  165.1690 C.ar    1  UNL1        0.1362
     14 F         144.3133  143.7862  165.6781 F       1  UNL1       -0.2045
     15 C         141.5947  142.7197  165.2975 C.3     1  UNL1        0.1467
     16 O         140.1503  143.0724  165.0992 O.3     1  UNL1       -0.3470
     17 C         139.3057  142.2709  164.1534 C.3     1  UNL1        0.1875
     18 C         139.2986  140.7734  164.2392 C.ar    1  UNL1        0.0897
     19 C         138.5561  140.0892  165.3485 C.ar    1  UNL1        0.0212
     20 C         138.5492  138.5917  165.4342 C.ar    1  UNL1        0.0750
     21 C         139.2846  137.7784  164.4106 C.ar    1  UNL1        0.0346
     22 C         140.0271  138.4626  163.3013 C.ar    1  UNL1        0.1380
     23 CL        140.7625  137.6493  162.2778 Cl      1  UNL1       -0.0614
     24 N         140.0341  139.9601  163.2156 N.ar    1  UNL1       -0.2358
     25 C         137.8067  137.9073  166.5435 C.3     1  UNL1        0.4187
     26 F         137.0643  137.2230  167.6527 F       1  UNL1       -0.1659
     27 F         138.0639  136.5789  165.8960 F       1  UNL1       -0.1659
     28 F         137.5496  139.2357  167.1909 F       1  UNL1       -0.1659
@<TRIPOS>BOND
     1     1     2    1
     2     2     3    1
     3     3     4    1
     4     4     5    1
     5     5    15    1
     6    15    16    1
     7    16    17    1
     8    17    18    1
     9    18    19   ar
    10    19    20   ar
    11    20    25    1
    12    25    26    1
    13    25    27    1
    14    25    28    1
    15    20    21   ar
    16    21    22   ar
    17    22    23    1
    18    22    24   ar
    19     5     8    1
    20     8     9   ar
    21     9    10   ar
    22    10    11   ar
    23    11    12   ar
    24    12    13   ar
    25    13    14    1
    26     5     6    1
    27     6     7    1
    28     7     2    1
    29    24    18   ar
    30    13     8   ar
@<TRIPOS>MOLECULE
*****
 28 30 0 0 0
SMALL
GASTEIGER

@<TRIPOS>ATOM
      1 C         138.2146  144.2282  163.9554 C.3     1  UNL1        0.0896
      2 N         138.6816  143.0059  164.6888 N.3     1  UNL1       -0.2715
      3 C         139.6756  143.1349  165.8048 C.3     1  UNL1        0.0725
      4 C         140.1425  141.9126  166.5382 C.3     1  UNL1        0.0239
      5 C         139.6156  140.5613  166.1557 C.3     1  UNL1        0.0511
      6 C         138.6217  140.4323  165.0397 C.3     1  UNL1        0.0239
      7 C         138.1547  141.6546  164.3063 C.3     1  UNL1        0.0725
      8 C         140.5378  140.1743  167.2737 C.ar    1  UNL1        0.0071
      9 C         141.9843  139.8960  166.9905 C.ar    1  UNL1       -0.0020
     10 C         142.9065  139.5091  168.1084 C.ar    1  UNL1       -0.0002
     11 C         142.3821  139.4003  169.5096 C.ar    1  UNL1        0.0023
     12 C         140.9356  139.6786  169.7928 C.ar    1  UNL1        0.0293
     13 C         140.0134  140.0656  168.6748 C.ar    1  UNL1        0.1362
     14 F         138.5670  140.3438  168.9580 F       1  UNL1       -0.2045
     15 C         139.4089  139.0756  166.1614 C.3     1  UNL1        0.1467
     16 O         139.3698  138.3189  164.8669 O.3     1  UNL1       -0.3470
     17 C         140.4881  137.3849  164.5101 C.3     1  UNL1        0.1875
     18 C         141.5822  137.8415  163.5911 C.ar    1  UNL1        0.0897
     19 C         142.6879  138.7096  164.1146 C.ar    1  UNL1        0.0212
     20 C         143.7819  139.1661  163.1956 C.ar    1  UNL1        0.0750
     21 C         143.7704  138.7547  161.7533 C.ar    1  UNL1        0.0346
     22 C         142.6647  137.8866  161.2297 C.ar    1  UNL1        0.1380
     23 CL        142.6532  137.4751  159.7874 Cl      1  UNL1       -0.0614
     24 N         141.5706  137.4300  162.1487 N.ar    1  UNL1       -0.2358
     25 C         144.8876  140.0342  163.7191 C.3     1  UNL1        0.4187
     26 F         145.9933  140.9023  164.2425 F       1  UNL1       -0.1659
     27 F         144.7099  139.4376  165.0838 F       1  UNL1       -0.1659
     28 F         145.0653  140.6308  162.3543 F       1  UNL1       -0.1659
@<TRIPOS>BOND
     1     1     2    1
     2     2     3    1
     3     3     4    1
     4     4     5    1
     5     5    15    1
     6    15    16    1
     7    16    17    1
     8    17    18    1
     9    18    19   ar
    10    19    20   ar
    11    20    25    1
    12    25    26    1
    13    25    27    1
    14    25    28    1
    15    20    21   ar
    16    21    22   ar
    17    22    23    1
    18    22    24   ar
    19     5     8    1
    20     8     9   ar
    21     9    10   ar
    22    10    11   ar
    23    11    12   ar
    24    12    13   ar
    25    13    14    1
    26     5     6    1
    27     6     7    1
    28     7     2    1
    29    24    18   ar
    30    13     8   ar
@<TRIPOS>MOLECULE
*****
 28 30 0 0 0
SMALL
GASTEIGER

@<TRIPOS>ATOM
      1 C         142.3270  142.5998  170.3804 C.3     1  UNL1        0.0896
      2 N         141.9597  142.5809  168.9262 N.3     1  UNL1       -0.2715
      3 C         140.6118  143.0708  168.4868 C.3     1  UNL1        0.0725
      4 C         140.2444  143.0518  167.0326 C.3     1  UNL1        0.0239
      5 C         141.2249  142.5431  166.0179 C.3     1  UNL1        0.0511
      6 C         142.5728  142.0533  166.4573 C.3     1  UNL1        0.0239
      7 C         142.9402  142.0722  167.9115 C.3     1  UNL1        0.0725
      8 C         140.0793  142.8992  165.1173 C.ar    1  UNL1        0.0071
      9 C         138.9109  141.9679  164.9861 C.ar    1  UNL1       -0.0020
     10 C         137.7653  142.3239  164.0857 C.ar    1  UNL1       -0.0002
     11 C         137.7882  143.6114  163.3164 C.ar    1  UNL1        0.0023
     12 C         138.9567  144.5428  163.4475 C.ar    1  UNL1        0.0293
     13 C         140.1023  144.1867  164.3481 C.ar    1  UNL1        0.1362
     14 F         141.2707  145.1180  164.4793 F       1  UNL1       -0.2045
     15 C         141.8076  142.1580  164.6904 C.3     1  UNL1        0.1467
     16 O         142.9706  141.2127  164.6276 O.3     1  UNL1       -0.3470
     17 C         142.7387  139.7325  164.7006 C.3     1  UNL1        0.1875
     18 C         141.3822  139.1699  164.3950 C.ar    1  UNL1        0.0897
     19 C         140.4209  138.8823  165.5101 C.ar    1  UNL1        0.0212
     20 C         139.0645  138.3197  165.2044 C.ar    1  UNL1        0.0750
     21 C         138.6692  138.0447  163.7838 C.ar    1  UNL1        0.0346
     22 C         139.6305  138.3323  162.6687 C.ar    1  UNL1        0.1380
     23 CL        139.2353  138.0573  161.2482 Cl      1  UNL1       -0.0614
     24 N         140.9870  138.8949  162.9743 N.ar    1  UNL1       -0.2358
     25 C         138.1031  138.0321  166.3194 C.3     1  UNL1        0.4187
     26 F         137.1418  137.7446  167.4343 F       1  UNL1       -0.1659
     27 F         138.1549  139.4724  166.7355 F       1  UNL1       -0.1659
     28 F         138.0514  136.5919  165.9032 F       1  UNL1       -0.1659
@<TRIPOS>BOND
     1     1     2    1
     2     2     3    1
     3     3     4    1
     4     4     5    1
     5     5    15    1
     6    15    16    1
     7    16    17    1
     8    17    18    1
     9    18    19   ar
    10    19    20   ar
    11    20    25    1
    12    25    26    1
    13    25    27    1
    14    25    28    1
    15    20    21   ar
    16    21    22   ar
    17    22    23    1
    18    22    24   ar
    19     5     8    1
    20     8     9   ar
    21     9    10   ar
    22    10    11   ar
    23    11    12   ar
    24    12    13   ar
    25    13    14    1
    26     5     6    1
    27     6     7    1
    28     7     2    1
    29    24    18   ar
    30    13     8   ar
@<TRIPOS>MOLECULE
*****
 28 30 0 0 0
SMALL
GASTEIGER

@<TRIPOS>ATOM
      1 C         138.0440  141.0789  157.7079 C.3     1  UNL1        0.0896
      2 N         138.0881  141.1486  159.2057 N.3     1  UNL1       -0.2715
      3 C         138.5463  142.4051  159.8848 C.3     1  UNL1        0.0725
      4 C         138.5904  142.4749  161.3825 C.3     1  UNL1        0.0239
      5 C         138.1764  141.2881  162.2011 C.3     1  UNL1        0.0511
      6 C         137.7183  140.0316  161.5220 C.3     1  UNL1        0.0239
      7 C         137.6741  139.9619  160.0242 C.3     1  UNL1        0.0725
      8 C         138.5339  142.2483  163.2967 C.ar    1  UNL1        0.0071
      9 C         137.5218  143.2435  163.7816 C.ar    1  UNL1       -0.0020
     10 C         137.8793  144.2037  164.8772 C.ar    1  UNL1       -0.0002
     11 C         139.2489  144.1686  165.4878 C.ar    1  UNL1        0.0023
     12 C         140.2610  143.1734  165.0030 C.ar    1  UNL1        0.0293
     13 C         139.9035  142.2132  163.9074 C.ar    1  UNL1        0.1362
     14 F         140.9156  141.2180  163.4225 F       1  UNL1       -0.2045
     15 C         137.8865  140.4347  163.4002 C.3     1  UNL1        0.1467
     16 O         138.3062  138.9947  163.4151 O.3     1  UNL1       -0.3470
     17 C         138.6418  138.3247  164.7145 C.3     1  UNL1        0.1875
     18 C         139.6824  138.9179  165.6174 C.ar    1  UNL1        0.0897
     19 C         139.2702  139.7954  166.7620 C.ar    1  UNL1        0.0212
     20 C         140.3109  140.3886  167.6648 C.ar    1  UNL1        0.0750
     21 C         141.7637  140.1043  167.4232 C.ar    1  UNL1        0.0346
     22 C         142.1759  139.2268  166.2785 C.ar    1  UNL1        0.1380
     23 CL        143.6287  138.9425  166.0368 Cl      1  UNL1       -0.0614
     24 N         141.1353  138.6336  165.3757 N.ar    1  UNL1       -0.2358
     25 C         139.8987  141.2661  168.8095 C.3     1  UNL1        0.4187
     26 F         139.4867  142.1437  169.9541 F       1  UNL1       -0.1659
     27 F         140.9220  142.2830  168.3982 F       1  UNL1       -0.1659
     28 F         138.8756  140.2492  169.2207 F       1  UNL1       -0.1659
@<TRIPOS>BOND
     1     1     2    1
     2     2     3    1
     3     3     4    1
     4     4     5    1
     5     5    15    1
     6    15    16    1
     7    16    17    1
     8    17    18    1
     9    18    19   ar
    10    19    20   ar
    11    20    25    1
    12    25    26    1
    13    25    27    1
    14    25    28    1
    15    20    21   ar
    16    21    22   ar
    17    22    23    1
    18    22    24   ar
    19     5     8    1
    20     8     9   ar
    21     9    10   ar
    22    10    11   ar
    23    11    12   ar
    24    12    13   ar
    25    13    14    1
    26     5     6    1
    27     6     7    1
    28     7     2    1
    29    24    18   ar
    30    13     8   ar
@<TRIPOS>MOLECULE
*****
 28 30 0 0 0
SMALL
GASTEIGER

@<TRIPOS>ATOM
      1 C         144.7826  142.8704  163.4925 C.3     1  UNL1        0.0896
      2 N         143.5616  142.8496  164.3635 N.3     1  UNL1       -0.2715
      3 C         143.5852  142.1145  165.6708 C.3     1  UNL1        0.0725
      4 C         142.3641  142.0937  166.5417 C.3     1  UNL1        0.0239
      5 C         141.1194  142.8079  166.1054 C.3     1  UNL1        0.0511
      6 C         141.0957  143.5430  164.7980 C.3     1  UNL1        0.0239
      7 C         142.3168  143.5638  163.9271 C.3     1  UNL1        0.0725
      8 C         140.6547  142.2541  167.4197 C.ar    1  UNL1        0.0071
      9 C         140.4433  143.1715  168.5874 C.ar    1  UNL1       -0.0020
     10 C         139.9787  142.6178  169.9018 C.ar    1  UNL1       -0.0002
     11 C         139.7254  141.1466  170.0482 C.ar    1  UNL1        0.0023
     12 C         139.9367  140.2291  168.8805 C.ar    1  UNL1        0.0293
     13 C         140.4014  140.7830  167.5662 C.ar    1  UNL1        0.1362
     14 F         140.6128  139.8656  166.3984 F       1  UNL1       -0.2045
     15 C         139.7132  143.3299  166.1254 C.3     1  UNL1        0.1467
     16 O         139.0602  143.7748  164.8505 O.3     1  UNL1       -0.3470
     17 C         137.8133  143.0938  164.3691 C.3     1  UNL1        0.1875
     18 C         137.8999  141.7491  163.7100 C.ar    1  UNL1        0.0897
     19 C         138.2376  140.5352  164.5239 C.ar    1  UNL1        0.0212
     20 C         138.3242  139.1907  163.8647 C.ar    1  UNL1        0.0750
     21 C         138.0731  139.0599  162.3916 C.ar    1  UNL1        0.0346
     22 C         137.7355  140.2738  161.5777 C.ar    1  UNL1        0.1380
     23 CL        137.4844  140.1431  160.1047 Cl      1  UNL1       -0.0614
     24 N         137.6488  141.6185  162.2369 N.ar    1  UNL1       -0.2358
     25 C         138.6619  137.9766  164.6785 C.3     1  UNL1        0.4187
     26 F         138.9996  136.7627  165.4923 F       1  UNL1       -0.1659
     27 F         139.3239  137.3591  163.4825 F       1  UNL1       -0.1659
     28 F         137.9999  138.5943  165.8744 F       1  UNL1       -0.1659
@<TRIPOS>BOND
     1     1     2    1
     2     2     3    1
     3     3     4    1
     4     4     5    1
     5     5    15    1
     6    15    16    1
     7    16    17    1
     8    17    18    1
     9    18    19   ar
    10    19    20   ar
    11    20    25    1
    12    25    26    1
    13    25    27    1
    14    25    28    1
    15    20    21   ar
    16    21    22   ar
    17    22    23    1
    18    22    24   ar
    19     5     8    1
    20     8     9   ar
    21     9    10   ar
    22    10    11   ar
    23    11    12   ar
    24    12    13   ar
    25    13    14    1
    26     5     6    1
    27     6     7    1
    28     7     2    1
    29    24    18   ar
    30    13     8   ar
@<TRIPOS>MOLECULE
*****
 28 30 0 0 0
SMALL
GASTEIGER

@<TRIPOS>ATOM
      1 C         144.8654  143.1128  163.7520 C.3     1  UNL1        0.0896
      2 N         143.6273  142.9876  164.5894 N.3     1  UNL1       -0.2715
      3 C         143.7097  142.3997  165.9669 C.3     1  UNL1        0.0725
      4 C         142.4715  142.2745  166.8043 C.3     1  UNL1        0.0239
      5 C         141.1509  142.7372  166.2642 C.3     1  UNL1        0.0511
      6 C         141.0684  143.3251  164.8867 C.3     1  UNL1        0.0239
      7 C         142.3066  143.4503  164.0493 C.3     1  UNL1        0.0725
      8 C         140.7231  142.2513  167.6174 C.ar    1  UNL1        0.0071
      9 C         140.4002  143.2372  168.7007 C.ar    1  UNL1       -0.0020
     10 C         139.9725  142.7515  170.0538 C.ar    1  UNL1       -0.0002
     11 C         139.8676  141.2797  170.3236 C.ar    1  UNL1        0.0023
     12 C         140.1905  140.2937  169.2403 C.ar    1  UNL1        0.0293
     13 C         140.6182  140.7795  167.8871 C.ar    1  UNL1        0.1362
     14 F         140.9411  139.7936  166.8038 F       1  UNL1       -0.2045
     15 C         139.6816  143.0312  166.1940 C.3     1  UNL1        0.1467
     16 O         138.9627  142.9510  164.8800 O.3     1  UNL1       -0.3470
     17 C         138.0328  141.8072  164.6024 C.3     1  UNL1        0.1875
     18 C         138.5291  140.3954  164.7048 C.ar    1  UNL1        0.0897
     19 C         139.6936  139.9475  163.8722 C.ar    1  UNL1        0.0212
     20 C         140.1898  138.5357  163.9747 C.ar    1  UNL1        0.0750
     21 C         139.5216  137.5718  164.9097 C.ar    1  UNL1        0.0346
     22 C         138.3571  138.0197  165.7424 C.ar    1  UNL1        0.1380
     23 CL        137.6889  137.0558  166.6774 Cl      1  UNL1       -0.0614
     24 N         137.8608  139.4315  165.6400 N.ar    1  UNL1       -0.2358
     25 C         141.3544  138.0877  163.1420 C.3     1  UNL1        0.4187
     26 F         142.5188  137.6396  162.3094 F       1  UNL1       -0.1659
     27 F         140.9040  136.6634  163.2786 F       1  UNL1       -0.1659
     28 F         141.8047  139.5119  163.0055 F       1  UNL1       -0.1659
@<TRIPOS>BOND
     1     1     2    1
     2     2     3    1
     3     3     4    1
     4     4     5    1
     5     5    15    1
     6    15    16    1
     7    16    17    1
     8    17    18    1
     9    18    19   ar
    10    19    20   ar
    11    20    25    1
    12    25    26    1
    13    25    27    1
    14    25    28    1
    15    20    21   ar
    16    21    22   ar
    17    22    23    1
    18    22    24   ar
    19     5     8    1
    20     8     9   ar
    21     9    10   ar
    22    10    11   ar
    23    11    12   ar
    24    12    13   ar
    25    13    14    1
    26     5     6    1
    27     6     7    1
    28     7     2    1
    29    24    18   ar
    30    13     8   ar
@<TRIPOS>MOLECULE
*****
 28 30 0 0 0
SMALL
GASTEIGER

@<TRIPOS>ATOM
      1 C         141.0525  141.9527  171.1378 C.3     1  UNL1        0.0896
      2 N         141.3848  142.0487  169.6783 N.3     1  UNL1       -0.2715
      3 C         142.6554  141.4454  169.1571 C.3     1  UNL1        0.0725
      4 C         142.9877  141.5414  167.6975 C.3     1  UNL1        0.0239
      5 C         142.0494  142.2406  166.7591 C.3     1  UNL1        0.0511
      6 C         140.7788  142.8438  167.2803 C.3     1  UNL1        0.0239
      7 C         140.4465  142.7478  168.7398 C.3     1  UNL1        0.0725
      8 C         143.1237  141.8307  165.7958 C.ar    1  UNL1        0.0071
      9 C         144.1172  142.8420  165.3057 C.ar    1  UNL1       -0.0020
     10 C         145.1916  142.4322  164.3425 C.ar    1  UNL1       -0.0002
     11 C         145.2723  141.0111  163.8693 C.ar    1  UNL1        0.0023
     12 C         144.2789  139.9998  164.3594 C.ar    1  UNL1        0.0293
     13 C         143.2045  140.4096  165.3227 C.ar    1  UNL1        0.1362
     14 F         142.2110  139.3984  165.8128 F       1  UNL1       -0.2045
     15 C         141.4842  142.7975  165.4861 C.3     1  UNL1        0.1467
     16 O         140.0171  142.6728  165.1993 O.3     1  UNL1       -0.3470
     17 C         139.5521  141.9522  163.9686 C.3     1  UNL1        0.1875
     18 C         139.7331  140.4675  163.8555 C.ar    1  UNL1        0.0897
     19 C         140.6390  139.9004  162.8029 C.ar    1  UNL1        0.0212
     20 C         140.8200  138.4156  162.6899 C.ar    1  UNL1        0.0750
     21 C         140.0951  137.4980  163.6293 C.ar    1  UNL1        0.0346
     22 C         139.1892  138.0651  164.6818 C.ar    1  UNL1        0.1380
     23 CL        138.4643  137.1475  165.6212 Cl      1  UNL1       -0.0614
     24 N         139.0082  139.5499  164.7949 N.ar    1  UNL1       -0.2358
     25 C         141.7259  137.8484  161.6374 C.3     1  UNL1        0.4187
     26 F         142.6318  137.2813  160.5850 F       1  UNL1       -0.1659
     27 F         142.7960  137.6444  162.6685 F       1  UNL1       -0.1659
     28 F         140.6557  138.0525  160.6064 F       1  UNL1       -0.1659
@<TRIPOS>BOND
     1     1     2    1
     2     2     3    1
     3     3     4    1
     4     4     5    1
     5     5    15    1
     6    15    16    1
     7    16    17    1
     8    17    18    1
     9    18    19   ar
    10    19    20   ar
    11    20    25    1
    12    25    26    1
    13    25    27    1
    14    25    28    1
    15    20    21   ar
    16    21    22   ar
    17    22    23    1
    18    22    24   ar
    19     5     8    1
    20     8     9   ar
    21     9    10   ar
    22    10    11   ar
    23    11    12   ar
    24    12    13   ar
    25    13    14    1
    26     5     6    1
    27     6     7    1
    28     7     2    1
    29    24    18   ar
    30    13     8   ar
@<TRIPOS>MOLECULE
*****
 28 30 0 0 0
SMALL
GASTEIGER

@<TRIPOS>ATOM
      1 C         138.8641  137.7054  164.0374 C.3     1  UNL1        0.0896
      2 N         139.6695  138.5973  164.9350 N.3     1  UNL1       -0.2715
      3 C         139.0843  139.0879  166.2260 C.3     1  UNL1        0.0725
      4 C         139.8898  139.9799  167.1236 C.3     1  UNL1        0.0239
      5 C         141.2805  140.3812  166.7302 C.3     1  UNL1        0.0511
      6 C         141.8657  139.8905  165.4392 C.3     1  UNL1        0.0239
      7 C         141.0603  138.9986  164.5416 C.3     1  UNL1        0.0725
      8 C         141.1642  141.0976  168.0429 C.ar    1  UNL1        0.0071
      9 C         140.5974  142.4854  168.0923 C.ar    1  UNL1       -0.0020
     10 C         140.4811  143.2019  169.4050 C.ar    1  UNL1       -0.0002
     11 C         140.9316  142.5304  170.6683 C.ar    1  UNL1        0.0023
     12 C         141.4984  141.1425  170.6190 C.ar    1  UNL1        0.0293
     13 C         141.6147  140.4261  169.3063 C.ar    1  UNL1        0.1362
     14 F         142.1816  139.0382  169.2569 F       1  UNL1       -0.2045
     15 C         142.6309  141.0313  166.7927 C.3     1  UNL1        0.1467
     16 O         143.2955  141.5022  165.5331 O.3     1  UNL1       -0.3470
     17 C         143.2953  142.9614  165.1854 C.3     1  UNL1        0.1875
     18 C         142.1744  143.5385  164.3728 C.ar    1  UNL1        0.0897
     19 C         140.8247  143.7425  164.9949 C.ar    1  UNL1        0.0212
     20 C         139.7039  144.3196  164.1822 C.ar    1  UNL1        0.0750
     21 C         139.9325  144.6928  162.7475 C.ar    1  UNL1        0.0346
     22 C         141.2821  144.4889  162.1254 C.ar    1  UNL1        0.1380
     23 CL        141.5108  144.8621  160.6907 Cl      1  UNL1       -0.0614
     24 N         142.4031  143.9118  162.9380 N.ar    1  UNL1       -0.2358
     25 C         138.3542  144.5236  164.8042 C.3     1  UNL1        0.4187
     26 F         137.0045  144.7275  165.4261 F       1  UNL1       -0.1659
     27 F         137.7116  144.3825  163.4561 F       1  UNL1       -0.1659
     28 F         138.9968  144.6647  166.1522 F       1  UNL1       -0.1659
@<TRIPOS>BOND
     1     1     2    1
     2     2     3    1
     3     3     4    1
     4     4     5    1
     5     5    15    1
     6    15    16    1
     7    16    17    1
     8    17    18    1
     9    18    19   ar
    10    19    20   ar
    11    20    25    1
    12    25    26    1
    13    25    27    1
    14    25    28    1
    15    20    21   ar
    16    21    22   ar
    17    22    23    1
    18    22    24   ar
    19     5     8    1
    20     8     9   ar
    21     9    10   ar
    22    10    11   ar
    23    11    12   ar
    24    12    13   ar
    25    13    14    1
    26     5     6    1
    27     6     7    1
    28     7     2    1
    29    24    18   ar
    30    13     8   ar
