@<TRIPOS>MOLECULE
*****
 32 36 0 0 0
SMALL
GASTEIGER

@<TRIPOS>ATOM
      1 N         139.2072  139.0578  164.1913 N.3     1  UNL1       -0.2704
      2 C         140.4118  139.9373  164.3506 C.3     1  UNL1        0.0722
      3 C         140.7752  140.4738  165.7034 C.3     1  UNL1        0.0195
      4 C         139.9339  140.1308  166.8969 C.3     1  UNL1        0.0300
      5 C         138.7292  139.2513  166.7377 C.3     1  UNL1        0.0195
      6 C         138.3659  138.7148  165.3849 C.3     1  UNL1        0.0722
      7 C         139.1918  139.8752  168.1752 C.3     1  UNL1        0.0873
      8 C         139.9024  140.6036  169.2774 C.2     1  UNL1        0.2292
      9 O         139.5020  140.6228  170.7228 O.2     1  UNL1       -0.2745
     10 N         141.0836  141.3094  168.6802 N.am    1  UNL1       -0.2586
     11 C         141.1031  141.0172  167.2090 C.3     1  UNL1        0.0985
     12 C         142.0718  142.1582  169.4236 C.2     1  UNL1        0.0814
     13 C         143.5656  142.0657  169.3225 C.2     1  UNL1        0.0960
     14 C         144.1568  143.0989  170.2351 C.2     1  UNL1        0.3428
     15 O         145.6196  143.3560  170.4457 O.2     1  UNL1       -0.2448
     16 O         143.0285  143.8302  170.9002 O.3     1  UNL1       -0.4390
     17 C         141.7399  143.2487  170.3986 C.3     1  UNL1        0.2502
     18 C         138.8439  138.5213  162.8385 C.3     1  UNL1        0.1063
     19 C         138.1805  139.4132  161.8313 C.3     1  UNL1        0.1483
     20 O         136.9168  138.9709  161.1549 O.3     1  UNL1       -0.3786
     21 H         136.6222  139.6592  160.5382 H       1  UNL1        0.2108
     22 C         137.2184  141.8816  163.2390 C.3     1  UNL1        0.0306
     23 C         138.2998  141.9816  162.2043 C.ar    1  UNL1       -0.0238
     24 C         138.7808  140.7474  161.5004 C.ar    1  UNL1        0.0015
     25 C         139.8622  140.8475  160.4657 C.ar    1  UNL1       -0.0020
     26 C         140.4626  142.1816  160.1349 C.ar    1  UNL1        0.0060
     27 C         139.9815  143.4158  160.8387 C.ar    1  UNL1        0.0748
     28 C         138.9002  143.3158  161.8734 C.ar    1  UNL1        0.0233
     29 C         138.6315  144.6952  162.3979 C.3     1  UNL1        0.2352
     30 O         139.5468  145.6477  161.6874 O.3     1  UNL1       -0.4404
     31 C         140.3812  144.8570  160.7238 C.2     1  UNL1        0.3413
     32 O         141.4309  145.4103  159.8062 O.2     1  UNL1       -0.2449
@<TRIPOS>BOND
     1    22    23    1
     2    23    24   ar
     3    24    19    1
     4    19    20    1
     5    19    18    1
     6    18     1    1
     7     1     2    1
     8     2     3    1
     9     3     4    1
    10     4     5    1
    11     5     6    1
    12     4     7    1
    13     7     8    1
    14     8     9    2
    15     8    10   am
    16    10    12    1
    17    12    13    2
    18    13    14    1
    19    14    15    2
    20    14    16    1
    21    16    17    1
    22    10    11    1
    23    24    25   ar
    24    25    26   ar
    25    26    27   ar
    26    27    28   ar
    27    28    29    1
    28    29    30    1
    29    30    31    1
    30    31    32    2
    31    28    23   ar
    32     6     1    1
    33    17    12    1
    34    31    27    1
    35    11     4    1
    36    20    21    1
@<TRIPOS>MOLECULE
*****
 32 36 0 0 0
SMALL
GASTEIGER

@<TRIPOS>ATOM
      1 N         140.1012  138.4469  163.5675 N.3     1  UNL1       -0.2704
      2 C         141.2169  139.2426  164.1776 C.3     1  UNL1        0.0722
      3 C         141.1003  139.7380  165.5886 C.3     1  UNL1        0.0195
      4 C         139.8681  139.4377  166.3895 C.3     1  UNL1        0.0300
      5 C         138.7524  138.6421  165.7794 C.3     1  UNL1        0.0195
      6 C         138.8690  138.1467  164.3685 C.3     1  UNL1        0.0722
      7 C         138.7029  139.2171  167.3080 C.3     1  UNL1        0.0873
      8 C         139.0109  139.8838  168.6160 C.2     1  UNL1        0.2292
      9 O         138.1198  139.9127  169.8223 O.2     1  UNL1       -0.2745
     10 N         140.3665  140.5165  168.5058 N.am    1  UNL1       -0.2586
     11 C         140.8962  140.2409  167.1298 C.3     1  UNL1        0.0985
     12 C         141.0689  141.2892  169.5825 C.2     1  UNL1        0.0814
     13 C         142.0328  142.4189  169.3712 C.2     1  UNL1        0.0960
     14 C         142.4905  142.8958  170.7177 C.2     1  UNL1        0.3428
     15 O         143.4591  144.0118  170.9755 O.2     1  UNL1       -0.2448
     16 O         141.8095  142.0608  171.7613 O.3     1  UNL1       -0.4390
     17 C         140.9309  141.0679  171.0596 C.3     1  UNL1        0.2502
     18 C         140.2178  137.9515  162.1565 C.3     1  UNL1        0.1063
     19 C         139.7839  138.8247  161.0167 C.3     1  UNL1        0.1483
     20 O         139.4230  138.2107  159.6966 O.3     1  UNL1       -0.3786
     21 H         139.1668  138.9093  159.0743 H       1  UNL1        0.2108
     22 C         142.2286  140.5096  160.5872 C.3     1  UNL1        0.0306
     23 C         140.9333  141.1545  160.9823 C.ar    1  UNL1       -0.0238
     24 C         139.7109  140.3121  161.1970 C.ar    1  UNL1        0.0015
     25 C         138.4155  140.9570  161.5921 C.ar    1  UNL1       -0.0020
     26 C         138.3425  142.4443  161.7724 C.ar    1  UNL1        0.0060
     27 C         139.5649  143.2867  161.5577 C.ar    1  UNL1        0.0748
     28 C         140.8602  142.6418  161.1626 C.ar    1  UNL1        0.0233
     29 C         141.8916  143.7218  161.0216 C.3     1  UNL1        0.2352
     30 O         141.2337  145.0342  161.3295 O.3     1  UNL1       -0.4404
     31 C         139.7957  144.7652  161.6609 C.2     1  UNL1        0.3413
     32 O         138.7688  145.7942  162.0305 O.2     1  UNL1       -0.2449
@<TRIPOS>BOND
     1    22    23    1
     2    23    24   ar
     3    24    19    1
     4    19    20    1
     5    19    18    1
     6    18     1    1
     7     1     2    1
     8     2     3    1
     9     3     4    1
    10     4     5    1
    11     5     6    1
    12     4     7    1
    13     7     8    1
    14     8     9    2
    15     8    10   am
    16    10    12    1
    17    12    13    2
    18    13    14    1
    19    14    15    2
    20    14    16    1
    21    16    17    1
    22    10    11    1
    23    24    25   ar
    24    25    26   ar
    25    26    27   ar
    26    27    28   ar
    27    28    29    1
    28    29    30    1
    29    30    31    1
    30    31    32    2
    31    28    23   ar
    32     6     1    1
    33    17    12    1
    34    31    27    1
    35    11     4    1
    36    20    21    1
@<TRIPOS>MOLECULE
*****
 32 36 0 0 0
SMALL
GASTEIGER

@<TRIPOS>ATOM
      1 N         139.6244  138.6075  163.0381 N.3     1  UNL1       -0.2704
      2 C         138.8697  139.6690  163.7820 C.3     1  UNL1        0.0722
      3 C         139.3648  140.1467  165.1149 C.3     1  UNL1        0.0195
      4 C         140.6147  139.5627  165.7039 C.3     1  UNL1        0.0300
      5 C         141.3694  138.5012  164.9599 C.3     1  UNL1        0.0195
      6 C         140.8743  138.0236  163.6270 C.3     1  UNL1        0.0722
      7 C         141.8421  139.0749  166.4150 C.3     1  UNL1        0.0873
      8 C         141.9553  139.8228  167.7104 C.2     1  UNL1        0.2292
      9 O         143.0362  139.6508  168.7361 O.2     1  UNL1       -0.2745
     10 N         140.7979  140.7728  167.7998 N.am    1  UNL1       -0.2586
     11 C         139.9694  140.6121  166.5598 C.3     1  UNL1        0.0985
     12 C         140.5182  141.7176  168.9307 C.2     1  UNL1        0.0814
     13 C         140.4356  143.2120  168.8312 C.2     1  UNL1        0.0960
     14 C         140.1384  143.7519  170.1987 C.2     1  UNL1        0.3428
     15 O         139.9715  145.1986  170.5584 O.2     1  UNL1       -0.2448
     16 O         140.0372  142.5912  171.1435 O.3     1  UNL1       -0.4390
     17 C         140.2720  141.3340  170.3597 C.3     1  UNL1        0.2502
     18 C         139.1293  138.1298  161.7051 C.3     1  UNL1        0.1063
     19 C         139.4817  138.8867  160.4590 C.3     1  UNL1        0.1483
     20 O         139.6623  138.1544  159.1624 O.3     1  UNL1       -0.3786
     21 H         139.8857  138.7872  158.4621 H       1  UNL1        0.2108
     22 C         142.2260  140.0728  160.7082 C.3     1  UNL1        0.0306
     23 C         141.0255  140.9691  160.6340 C.ar    1  UNL1       -0.0238
     24 C         139.6533  140.3761  160.5094 C.ar    1  UNL1        0.0015
     25 C         138.4528  141.2723  160.4351 C.ar    1  UNL1       -0.0020
     26 C         138.6245  142.7616  160.4855 C.ar    1  UNL1        0.0060
     27 C         139.9966  143.3546  160.6101 C.ar    1  UNL1        0.0748
     28 C         141.1971  142.4583  160.6843 C.ar    1  UNL1        0.0233
     29 C         142.4157  143.3248  160.8034 C.3     1  UNL1        0.2352
     30 O         141.9684  144.7566  160.8027 O.3     1  UNL1       -0.4404
     31 C         140.4733  144.7750  160.6832 C.2     1  UNL1        0.3413
     32 O         139.6070  145.9988  160.6438 O.2     1  UNL1       -0.2449
@<TRIPOS>BOND
     1    22    23    1
     2    23    24   ar
     3    24    19    1
     4    19    20    1
     5    19    18    1
     6    18     1    1
     7     1     2    1
     8     2     3    1
     9     3     4    1
    10     4     5    1
    11     5     6    1
    12     4     7    1
    13     7     8    1
    14     8     9    2
    15     8    10   am
    16    10    12    1
    17    12    13    2
    18    13    14    1
    19    14    15    2
    20    14    16    1
    21    16    17    1
    22    10    11    1
    23    24    25   ar
    24    25    26   ar
    25    26    27   ar
    26    27    28   ar
    27    28    29    1
    28    29    30    1
    29    30    31    1
    30    31    32    2
    31    28    23   ar
    32     6     1    1
    33    17    12    1
    34    31    27    1
    35    11     4    1
    36    20    21    1
@<TRIPOS>MOLECULE
*****
 32 36 0 0 0
SMALL
GASTEIGER

@<TRIPOS>ATOM
      1 N         138.9567  138.4474  162.8616 N.3     1  UNL1       -0.2704
      2 C         138.7416  139.4095  163.9920 C.3     1  UNL1        0.0722
      3 C         139.7780  139.5468  165.0676 C.3     1  UNL1        0.0195
      4 C         141.0296  138.7219  165.0127 C.3     1  UNL1        0.0300
      5 C         141.2448  137.7597  163.8823 C.3     1  UNL1        0.0195
      6 C         140.2084  137.6225  162.8067 C.3     1  UNL1        0.0722
      7 C         142.3240  137.9679  165.0913 C.3     1  UNL1        0.0873
      8 C         143.0481  138.4172  166.3258 C.2     1  UNL1        0.2292
      9 O         144.3843  137.9218  166.7937 O.2     1  UNL1       -0.2745
     10 N         142.2012  139.4490  167.0101 N.am    1  UNL1       -0.2586
     11 C         140.9538  139.6373  166.1987 C.3     1  UNL1        0.0985
     12 C         142.5419  140.1665  168.2825 C.2     1  UNL1        0.0814
     13 C         142.9484  141.6054  168.4016 C.2     1  UNL1        0.0960
     14 C         143.1937  141.8993  169.8519 C.2     1  UNL1        0.3428
     15 O         143.6192  143.2188  170.4245 O.2     1  UNL1       -0.2448
     16 O         142.9388  140.6420  170.6293 O.3     1  UNL1       -0.4390
     17 C         142.5359  139.5711  169.6592 C.3     1  UNL1        0.2502
     18 C         137.9203  138.3101  161.7859 C.3     1  UNL1        0.1063
     19 C         137.6452  139.4566  160.8587 C.3     1  UNL1        0.1483
     20 O         136.3041  139.5824  160.1988 O.3     1  UNL1       -0.3786
     21 H         136.2935  140.3724  159.6360 H       1  UNL1        0.2108
     22 C         137.6096  142.0793  162.3148 C.3     1  UNL1        0.0306
     23 C         138.6935  141.7888  161.3195 C.ar    1  UNL1       -0.0238
     24 C         138.7113  140.4775  160.5914 C.ar    1  UNL1        0.0015
     25 C         139.7952  140.1869  159.5960 C.ar    1  UNL1       -0.0020
     26 C         140.8613  141.2077  159.3287 C.ar    1  UNL1        0.0060
     27 C         140.8435  142.5190  160.0568 C.ar    1  UNL1        0.0748
     28 C         139.7596  142.8095  161.0522 C.ar    1  UNL1        0.0233
     29 C         140.0003  144.1799  161.6127 C.3     1  UNL1        0.2352
     30 O         141.2329  144.7363  160.9638 O.3     1  UNL1       -0.4404
     31 C         141.7540  143.7098  160.0022 C.2     1  UNL1        0.3413
     32 O         142.9719  143.8495  159.1377 O.2     1  UNL1       -0.2449
@<TRIPOS>BOND
     1    22    23    1
     2    23    24   ar
     3    24    19    1
     4    19    20    1
     5    19    18    1
     6    18     1    1
     7     1     2    1
     8     2     3    1
     9     3     4    1
    10     4     5    1
    11     5     6    1
    12     4     7    1
    13     7     8    1
    14     8     9    2
    15     8    10   am
    16    10    12    1
    17    12    13    2
    18    13    14    1
    19    14    15    2
    20    14    16    1
    21    16    17    1
    22    10    11    1
    23    24    25   ar
    24    25    26   ar
    25    26    27   ar
    26    27    28   ar
    27    28    29    1
    28    29    30    1
    29    30    31    1
    30    31    32    2
    31    28    23   ar
    32     6     1    1
    33    17    12    1
    34    31    27    1
    35    11     4    1
    36    20    21    1
@<TRIPOS>MOLECULE
*****
 32 36 0 0 0
SMALL
GASTEIGER

@<TRIPOS>ATOM
      1 N         142.1833  138.1529  162.7152 N.3     1  UNL1       -0.2704
      2 C         142.6902  139.2403  163.6155 C.3     1  UNL1        0.0722
      3 C         141.9072  139.6313  164.8336 C.3     1  UNL1        0.0195
      4 C         140.6173  138.9349  165.1516 C.3     1  UNL1        0.0300
      5 C         140.1103  137.8475  164.2514 C.3     1  UNL1        0.0195
      6 C         140.8933  137.4564  163.0332 C.3     1  UNL1        0.0722
      7 C         139.3177  138.3315  165.5956 C.3     1  UNL1        0.0873
      8 C         138.8936  139.0217  166.8582 C.2     1  UNL1        0.2292
      9 O         137.6504  138.7327  167.6461 O.2     1  UNL1       -0.2745
     10 N         139.9311  140.0517  167.1944 N.am    1  UNL1       -0.2586
     11 C         140.9963  139.9980  166.1397 C.3     1  UNL1        0.0985
     12 C         139.9074  140.9733  168.3774 C.2     1  UNL1        0.0814
     13 C         140.4194  142.3829  168.4073 C.2     1  UNL1        0.0960
     14 C         140.1960  142.9281  169.7868 C.2     1  UNL1        0.3428
     15 O         140.5590  144.3043  170.2604 O.2     1  UNL1       -0.2448
     16 O         139.5460  141.8555  170.6095 O.3     1  UNL1       -0.4390
     17 C         139.3676  140.6473  169.7384 C.3     1  UNL1        0.2502
     18 C         142.9662  137.7618  161.4970 C.3     1  UNL1        0.1063
     19 C         142.6477  138.3829  160.1694 C.3     1  UNL1        0.1483
     20 O         142.6985  137.5524  158.9213 O.3     1  UNL1       -0.3786
     21 H         142.4673  138.1031  158.1569 H       1  UNL1        0.2108
     22 C         139.7626  139.1901  160.0113 C.3     1  UNL1        0.0306
     23 C         140.8358  140.2382  160.0107 C.ar    1  UNL1       -0.0238
     24 C         142.2783  139.8346  160.0898 C.ar    1  UNL1        0.0015
     25 C         143.3514  140.8826  160.0892 C.ar    1  UNL1       -0.0020
     26 C         142.9821  142.3342  160.0097 C.ar    1  UNL1        0.0060
     27 C         141.5396  142.7378  159.9306 C.ar    1  UNL1        0.0748
     28 C         140.4664  141.6898  159.9311 C.ar    1  UNL1        0.0233
     29 C         139.1399  142.3846  159.8442 C.3     1  UNL1        0.2352
     30 O         139.3932  143.8621  159.7899 O.3     1  UNL1       -0.4404
     31 C         140.8763  144.0803  159.8433 C.2     1  UNL1        0.3413
     32 O         141.5737  145.4081  159.8145 O.2     1  UNL1       -0.2449
@<TRIPOS>BOND
     1    22    23    1
     2    23    24   ar
     3    24    19    1
     4    19    20    1
     5    19    18    1
     6    18     1    1
     7     1     2    1
     8     2     3    1
     9     3     4    1
    10     4     5    1
    11     5     6    1
    12     4     7    1
    13     7     8    1
    14     8     9    2
    15     8    10   am
    16    10    12    1
    17    12    13    2
    18    13    14    1
    19    14    15    2
    20    14    16    1
    21    16    17    1
    22    10    11    1
    23    24    25   ar
    24    25    26   ar
    25    26    27   ar
    26    27    28   ar
    27    28    29    1
    28    29    30    1
    29    30    31    1
    30    31    32    2
    31    28    23   ar
    32     6     1    1
    33    17    12    1
    34    31    27    1
    35    11     4    1
    36    20    21    1
@<TRIPOS>MOLECULE
*****
 32 36 0 0 0
SMALL
GASTEIGER

@<TRIPOS>ATOM
      1 N         141.9038  138.1166  162.5719 N.3     1  UNL1       -0.2704
      2 C         142.4852  139.1392  163.5026 C.3     1  UNL1        0.0722
      3 C         141.7455  139.5254  164.7490 C.3     1  UNL1        0.0195
      4 C         140.4244  138.8891  165.0648 C.3     1  UNL1        0.0300
      5 C         139.8430  137.8665  164.1341 C.3     1  UNL1        0.0195
      6 C         140.5826  137.4802  162.8877 C.3     1  UNL1        0.0722
      7 C         139.1009  138.3412  165.5102 C.3     1  UNL1        0.0873
      8 C         138.7368  139.0046  166.8054 C.2     1  UNL1        0.2292
      9 O         137.4928  138.7541  167.6052 O.2     1  UNL1       -0.2745
     10 N         139.8353  139.9624  167.1605 N.am    1  UNL1       -0.2586
     11 C         140.8782  139.8910  166.0847 C.3     1  UNL1        0.0985
     12 C         139.8825  140.8379  168.3775 C.2     1  UNL1        0.0814
     13 C         140.3813  142.2516  168.4278 C.2     1  UNL1        0.0960
     14 C         140.2463  142.7408  169.8393 C.2     1  UNL1        0.3428
     15 O         140.6268  144.1024  170.3408 O.2     1  UNL1       -0.2448
     16 O         139.6641  141.6294  170.6615 O.3     1  UNL1       -0.4390
     17 C         139.4393  140.4534  169.7579 C.3     1  UNL1        0.2502
     18 C         142.6435  137.7303  161.3254 C.3     1  UNL1        0.1063
     19 C         142.7502  138.6997  160.1858 C.3     1  UNL1        0.1483
     20 O         144.0991  139.1434  159.7024 O.3     1  UNL1       -0.3786
     21 H         143.9902  139.7654  158.9660 H       1  UNL1        0.2108
     22 C         141.7354  141.4383  160.8719 C.3     1  UNL1        0.0306
     23 C         141.0007  140.5948  159.8726 C.ar    1  UNL1       -0.0238
     24 C         141.5080  139.2255  159.5295 C.ar    1  UNL1        0.0015
     25 C         140.7733  138.3820  158.5302 C.ar    1  UNL1       -0.0020
     26 C         139.5312  138.9078  157.8739 C.ar    1  UNL1        0.0060
     27 C         139.0238  140.2770  158.2170 C.ar    1  UNL1        0.0748
     28 C         139.7586  141.1205  159.2163 C.ar    1  UNL1        0.0233
     29 C         139.0250  142.4217  159.3531 C.3     1  UNL1        0.2352
     30 O         137.8368  142.3824  158.4383 O.3     1  UNL1       -0.4404
     31 C         137.8362  141.0569  157.7362 C.2     1  UNL1        0.3413
     32 O         136.8252  140.5928  156.7299 O.2     1  UNL1       -0.2449
@<TRIPOS>BOND
     1    22    23    1
     2    23    24   ar
     3    24    19    1
     4    19    20    1
     5    19    18    1
     6    18     1    1
     7     1     2    1
     8     2     3    1
     9     3     4    1
    10     4     5    1
    11     5     6    1
    12     4     7    1
    13     7     8    1
    14     8     9    2
    15     8    10   am
    16    10    12    1
    17    12    13    2
    18    13    14    1
    19    14    15    2
    20    14    16    1
    21    16    17    1
    22    10    11    1
    23    24    25   ar
    24    25    26   ar
    25    26    27   ar
    26    27    28   ar
    27    28    29    1
    28    29    30    1
    29    30    31    1
    30    31    32    2
    31    28    23   ar
    32     6     1    1
    33    17    12    1
    34    31    27    1
    35    11     4    1
    36    20    21    1
@<TRIPOS>MOLECULE
*****
 32 36 0 0 0
SMALL
GASTEIGER

@<TRIPOS>ATOM
      1 N         143.2022  140.5210  164.0279 N.3     1  UNL1       -0.2704
      2 C         142.1412  139.5891  163.5222 C.3     1  UNL1        0.0722
      3 C         142.0761  139.2481  162.0629 C.3     1  UNL1        0.0195
      4 C         143.0720  139.8390  161.1094 C.3     1  UNL1        0.0300
      5 C         144.1330  140.7709  161.6152 C.3     1  UNL1        0.0195
      6 C         144.1981  141.1119  163.0745 C.3     1  UNL1        0.0722
      7 C         143.9945  140.3498  160.0426 C.3     1  UNL1        0.0873
      8 C         143.5656  139.7538  158.7345 C.2     1  UNL1        0.2292
      9 O         144.2109  139.9946  157.4021 O.2     1  UNL1       -0.2745
     10 N         142.3780  138.8746  158.9930 N.am    1  UNL1       -0.2586
     11 C         142.0729  138.9272  160.4607 C.3     1  UNL1        0.0985
     12 C         141.6273  138.0820  157.9644 C.2     1  UNL1        0.0814
     13 C         140.1659  138.2057  157.6500 C.2     1  UNL1        0.0960
     14 C         139.8416  137.2266  156.5609 C.2     1  UNL1        0.3428
     15 O         138.4930  137.0138  155.9394 O.2     1  UNL1       -0.2448
     16 O         141.1025  136.4977  156.2021 O.3     1  UNL1       -0.4390
     17 C         142.2062  137.0264  157.0697 C.3     1  UNL1        0.2502
     18 C         143.2674  140.8621  165.4872 C.3     1  UNL1        0.1063
     19 C         142.5689  142.0849  166.0036 C.3     1  UNL1        0.1483
     20 O         142.6709  142.4505  167.4548 O.3     1  UNL1       -0.3786
     21 H         142.1653  143.2615  167.6202 H       1  UNL1        0.2108
     22 C         139.6339  141.5777  165.6449 C.3     1  UNL1        0.0306
     23 C         140.3008  142.6887  164.8894 C.ar    1  UNL1       -0.0238
     24 C         141.7683  142.9424  165.0687 C.ar    1  UNL1        0.0015
     25 C         142.4352  144.0534  164.3131 C.ar    1  UNL1       -0.0020
     26 C         141.6347  144.9107  163.3783 C.ar    1  UNL1        0.0060
     27 C         140.1672  144.6571  163.1990 C.ar    1  UNL1        0.0748
     28 C         139.5003  143.5461  163.9545 C.ar    1  UNL1        0.0233
     29 C         138.0488  143.5344  163.5762 C.3     1  UNL1        0.2352
     30 O         137.8187  144.6381  162.5869 O.3     1  UNL1       -0.4404
     31 C         139.1279  145.3320  162.3537 C.2     1  UNL1        0.3413
     32 O         139.3576  146.4963  161.4364 O.2     1  UNL1       -0.2449
@<TRIPOS>BOND
     1    22    23    1
     2    23    24   ar
     3    24    19    1
     4    19    20    1
     5    19    18    1
     6    18     1    1
     7     1     2    1
     8     2     3    1
     9     3     4    1
    10     4     5    1
    11     5     6    1
    12     4     7    1
    13     7     8    1
    14     8     9    2
    15     8    10   am
    16    10    12    1
    17    12    13    2
    18    13    14    1
    19    14    15    2
    20    14    16    1
    21    16    17    1
    22    10    11    1
    23    24    25   ar
    24    25    26   ar
    25    26    27   ar
    26    27    28   ar
    27    28    29    1
    28    29    30    1
    29    30    31    1
    30    31    32    2
    31    28    23   ar
    32     6     1    1
    33    17    12    1
    34    31    27    1
    35    11     4    1
    36    20    21    1
@<TRIPOS>MOLECULE
*****
 32 36 0 0 0
SMALL
GASTEIGER

@<TRIPOS>ATOM
      1 N         138.9862  138.9316  162.9803 N.3     1  UNL1       -0.2704
      2 C         138.3438  140.0035  163.8100 C.3     1  UNL1        0.0722
      3 C         138.9556  140.4064  165.1189 C.3     1  UNL1        0.0195
      4 C         140.2097  139.7375  165.5982 C.3     1  UNL1        0.0300
      5 C         140.8520  138.6655  164.7686 C.3     1  UNL1        0.0195
      6 C         140.2403  138.2626  163.4596 C.3     1  UNL1        0.0722
      7 C         141.4551  139.1612  166.2040 C.3     1  UNL1        0.0873
      8 C         141.6985  139.8550  167.5115 C.2     1  UNL1        0.2292
      9 O         142.8370  139.5902  168.4515 O.2     1  UNL1       -0.2745
     10 N         140.6036  140.8601  167.7137 N.am    1  UNL1       -0.2586
     11 C         139.6834  140.7875  166.5313 C.3     1  UNL1        0.0985
     12 C         140.4549  141.7769  168.8915 C.2     1  UNL1        0.0814
     13 C         140.3291  143.2706  168.8359 C.2     1  UNL1        0.0960
     14 C         140.2024  143.7778  170.2418 C.2     1  UNL1        0.3428
     15 O         140.0542  145.2132  170.6513 O.2     1  UNL1       -0.2448
     16 O         140.2498  142.5976  171.1665 O.3     1  UNL1       -0.4390
     17 C         140.4059  141.3610  170.3319 C.3     1  UNL1        0.2502
     18 C         138.3744  138.5286  161.6713 C.3     1  UNL1        0.1063
     19 C         138.3569  139.4935  160.5230 C.3     1  UNL1        0.1483
     20 O         137.1240  139.6342  159.6804 O.3     1  UNL1       -0.3786
     21 H         137.2799  140.2943  158.9870 H       1  UNL1        0.2108
     22 C         138.3457  142.4432  161.0700 C.3     1  UNL1        0.0306
     23 C         139.5668  141.7925  160.4908 C.ar    1  UNL1       -0.0238
     24 C         139.5724  140.3176  160.2173 C.ar    1  UNL1        0.0015
     25 C         140.7935  139.6669  159.6380 C.ar    1  UNL1       -0.0020
     26 C         142.0089  140.4910  159.3323 C.ar    1  UNL1        0.0060
     27 C         142.0033  141.9658  159.6058 C.ar    1  UNL1        0.0748
     28 C         140.7822  142.6166  160.1850 C.ar    1  UNL1        0.0233
     29 C         141.0692  144.0800  160.3463 C.3     1  UNL1        0.2352
     30 O         142.4676  144.3338  159.8667 O.3     1  UNL1       -0.4404
     31 C         143.0449  143.0271  159.4091 C.2     1  UNL1        0.3413
     32 O         144.4221  142.8184  158.8524 O.2     1  UNL1       -0.2449
@<TRIPOS>BOND
     1    22    23    1
     2    23    24   ar
     3    24    19    1
     4    19    20    1
     5    19    18    1
     6    18     1    1
     7     1     2    1
     8     2     3    1
     9     3     4    1
    10     4     5    1
    11     5     6    1
    12     4     7    1
    13     7     8    1
    14     8     9    2
    15     8    10   am
    16    10    12    1
    17    12    13    2
    18    13    14    1
    19    14    15    2
    20    14    16    1
    21    16    17    1
    22    10    11    1
    23    24    25   ar
    24    25    26   ar
    25    26    27   ar
    26    27    28   ar
    27    28    29    1
    28    29    30    1
    29    30    31    1
    30    31    32    2
    31    28    23   ar
    32     6     1    1
    33    17    12    1
    34    31    27    1
    35    11     4    1
    36    20    21    1
@<TRIPOS>MOLECULE
*****
 32 36 0 0 0
SMALL
GASTEIGER

@<TRIPOS>ATOM
      1 N         140.9800  138.5362  163.0165 N.3     1  UNL1       -0.2704
      2 C         140.0904  139.6052  163.5782 C.3     1  UNL1        0.0722
      3 C         140.2915  140.0859  164.9847 C.3     1  UNL1        0.0195
      4 C         141.3823  139.4975  165.8296 C.3     1  UNL1        0.0300
      5 C         142.2720  138.4284  165.2680 C.3     1  UNL1        0.0195
      6 C         142.0709  137.9477  163.8614 C.3     1  UNL1        0.0722
      7 C         142.4257  139.0058  166.7887 C.3     1  UNL1        0.0873
      8 C         142.2636  139.7588  168.0760 C.2     1  UNL1        0.2292
      9 O         143.0984  139.5852  169.3101 O.2     1  UNL1       -0.2745
     10 N         141.1201  140.7157  167.9124 N.am    1  UNL1       -0.2586
     11 C         140.5755  140.5543  166.5242 C.3     1  UNL1        0.0985
     12 C         140.6108  141.6671  168.9542 C.2     1  UNL1        0.0814
     13 C         140.7158  143.1627  168.9092 C.2     1  UNL1        0.0960
     14 C         140.0769  143.7098  170.1511 C.2     1  UNL1        0.3428
     15 O         139.9586  145.1599  170.5164 O.2     1  UNL1       -0.2448
     16 O         139.5769  142.5524  170.9638 O.3     1  UNL1       -0.4390
     17 C         139.9069  141.2899  170.2240 C.3     1  UNL1        0.2502
     18 C         140.7789  138.0554  161.6099 C.3     1  UNL1        0.1063
     19 C         139.4349  138.1876  160.9571 C.3     1  UNL1        0.1483
     20 O         138.2234  137.5871  161.6064 O.3     1  UNL1       -0.3786
     21 H         137.4426  137.7621  161.0582 H       1  UNL1        0.2108
     22 C         138.1901  140.9164  160.8913 C.3     1  UNL1        0.0306
     23 C         138.6800  140.2847  159.6220 C.ar    1  UNL1       -0.0238
     24 C         139.3024  138.9204  159.6549 C.ar    1  UNL1        0.0015
     25 C         139.7924  138.2888  158.3857 C.ar    1  UNL1       -0.0020
     26 C         139.6599  139.0214  157.0836 C.ar    1  UNL1        0.0060
     27 C         139.0375  140.3858  157.0507 C.ar    1  UNL1        0.0748
     28 C         138.5475  141.0174  158.3199 C.ar    1  UNL1        0.0233
     29 C         137.9816  142.3641  157.9791 C.3     1  UNL1        0.2352
     30 O         138.1218  142.5648  156.4992 O.3     1  UNL1       -0.4404
     31 C         138.7744  141.3421  155.9254 C.2     1  UNL1        0.3413
     32 O         139.1056  141.1155  154.4801 O.2     1  UNL1       -0.2449
@<TRIPOS>BOND
     1    22    23    1
     2    23    24   ar
     3    24    19    1
     4    19    20    1
     5    19    18    1
     6    18     1    1
     7     1     2    1
     8     2     3    1
     9     3     4    1
    10     4     5    1
    11     5     6    1
    12     4     7    1
    13     7     8    1
    14     8     9    2
    15     8    10   am
    16    10    12    1
    17    12    13    2
    18    13    14    1
    19    14    15    2
    20    14    16    1
    21    16    17    1
    22    10    11    1
    23    24    25   ar
    24    25    26   ar
    25    26    27   ar
    26    27    28   ar
    27    28    29    1
    28    29    30    1
    29    30    31    1
    30    31    32    2
    31    28    23   ar
    32     6     1    1
    33    17    12    1
    34    31    27    1
    35    11     4    1
    36    20    21    1
