@<TRIPOS>MOLECULE
*****
 36 39 0 0 0
SMALL
GASTEIGER

@<TRIPOS>ATOM
      1 C         141.8826  143.3431  162.1404 C.3     1  UNL1        0.1102
      2 C         140.5844  143.9163  162.6263 C.3     1  UNL1        0.0296
      3 C         139.6531  143.0740  163.4470 C.3     1  UNL1        0.0730
      4 N         140.0201  141.6587  163.7816 N.3     1  UNL1       -0.2691
      5 C         141.3183  141.0855  163.2957 C.3     1  UNL1        0.0730
      6 C         142.2495  141.9276  162.4751 C.3     1  UNL1        0.0296
      7 C         143.2139  143.2503  161.4557 C.2     1  UNL1        0.3177
      8 O         144.3779  144.0458  161.9679 O.2     1  UNL1       -0.2501
      9 C         144.6065  142.4814  159.4015 C.3     1  UNL1        0.2556
     10 O         143.3814  142.3619  160.2587 O.3     1  UNL1       -0.4444
     11 C         141.9781  144.7263  161.5679 C.3     1  UNL1        0.1002
     12 N         142.0514  144.9196  160.0823 N.am    1  UNL1       -0.3003
     13 C         140.8705  145.4689  159.3382 C.2     1  UNL1        0.2459
     14 O         139.6161  145.8247  160.0799 O.2     1  UNL1       -0.2701
     15 H         142.8747  144.6861  159.5956 H       1  UNL1        0.1498
     16 C         140.9438  145.6623  157.8526 C.ar    1  UNL1        0.0550
     17 C         142.0369  145.0044  157.0637 C.ar    1  UNL1        0.0160
     18 C         142.1103  145.1978  155.5780 C.ar    1  UNL1        0.0587
     19 CL        143.2034  144.5399  154.7891 Cl      1  UNL1       -0.0822
     20 C         141.0905  146.0490  154.8812 C.ar    1  UNL1        0.0228
     21 C         139.9974  146.7069  155.6701 C.ar    1  UNL1        0.0587
     22 CL        138.9777  147.5581  154.9733 Cl      1  UNL1       -0.0822
     23 C         139.9240  146.5135  157.1558 C.ar    1  UNL1        0.0160
     24 C         139.0888  140.8165  164.6022 C.3     1  UNL1        0.0982
     25 C         139.3112  140.6733  166.0788 C.2     1  UNL1        0.0075
     26 C         140.2367  141.6136  166.7924 C.2     1  UNL1       -0.0009
     27 C         140.4592  141.4704  168.2690 C.ar    1  UNL1        0.0335
     28 C         141.3846  142.4107  168.9826 C.ar    1  UNL1        0.0030
     29 C         141.6071  142.2675  170.4591 C.ar    1  UNL1        0.0002
     30 C         140.9040  141.1841  171.2219 C.ar    1  UNL1        0.0031
     31 C         139.9785  140.2438  170.5082 C.ar    1  UNL1        0.0369
     32 C         139.7561  140.3870  169.0318 C.ar    1  UNL1        0.1385
     33 O         138.8306  139.4467  168.3180 O.3     1  UNL1       -0.4788
     34 C         138.6082  139.5899  166.8416 C.3     1  UNL1        0.1496
     35 C         138.0776  139.3248  165.4638 C.3     1  UNL1        0.0480
     36 C         137.7209  138.4144  167.1259 C.3     1  UNL1        0.0480
@<TRIPOS>BOND
     1     9    10    1
     2    10     7    1
     3     7     8    2
     4     7     1    1
     5     1    11    1
     6    11    12    1
     7    12    13   am
     8    13    14    2
     9    13    16    1
    10    16    17   ar
    11    17    18   ar
    12    18    19    1
    13    18    20   ar
    14    20    21   ar
    15    21    22    1
    16    21    23   ar
    17     1     2    1
    18     2     3    1
    19     3     4    1
    20     4    24    1
    21    24    25    1
    22    25    26    2
    23    26    27    1
    24    27    28   ar
    25    28    29   ar
    26    29    30   ar
    27    30    31   ar
    28    31    32   ar
    29    32    33    1
    30    33    34    1
    31    34    35    1
    32    34    36    1
    33     4     5    1
    34     5     6    1
    35     6     1    1
    36    23    16   ar
    37    34    25    1
    38    32    27   ar
    39    12    15    1
@<TRIPOS>MOLECULE
*****
 36 39 0 0 0
SMALL
GASTEIGER

@<TRIPOS>ATOM
      1 C         143.0843  139.0578  158.8049 C.3     1  UNL1        0.1102
      2 C         142.7407  137.8453  159.6183 C.3     1  UNL1        0.0296
      3 C         143.0039  137.8336  161.0951 C.3     1  UNL1        0.0730
      4 N         143.6106  139.0344  161.7583 N.3     1  UNL1       -0.2691
      5 C         143.9542  140.2469  160.9449 C.3     1  UNL1        0.0730
      6 C         143.6910  140.2587  159.4682 C.3     1  UNL1        0.0296
      7 C         143.2353  139.9625  157.6180 C.2     1  UNL1        0.3177
      8 O         142.5254  141.2834  157.5867 O.2     1  UNL1       -0.2501
      9 C         145.3081  140.3531  156.1011 C.3     1  UNL1        0.2556
     10 O         144.0964  139.5462  156.4625 O.3     1  UNL1       -0.4444
     11 C         142.5300  138.1712  157.7295 C.3     1  UNL1        0.1002
     12 N         143.1459  136.8277  157.4737 N.am    1  UNL1       -0.3003
     13 C         142.4352  135.8293  156.6087 C.2     1  UNL1        0.2459
     14 O         141.1086  136.1744  155.9996 O.2     1  UNL1       -0.2701
     15 H         144.0166  136.6011  157.8735 H       1  UNL1        0.1498
     16 C         143.0511  134.4857  156.3528 C.ar    1  UNL1        0.0550
     17 C         142.7481  133.7519  155.0801 C.ar    1  UNL1        0.0160
     18 C         143.3639  132.4084  154.8241 C.ar    1  UNL1        0.0587
     19 CL        143.0609  131.6746  153.5514 Cl      1  UNL1       -0.0822
     20 C         144.2827  131.7985  155.8409 C.ar    1  UNL1        0.0228
     21 C         144.5857  132.5322  157.1136 C.ar    1  UNL1        0.0587
     22 CL        145.5045  131.9223  158.1304 Cl      1  UNL1       -0.0822
     23 C         143.9699  133.8758  157.3696 C.ar    1  UNL1        0.0160
     24 C         143.8738  139.0226  163.2350 C.3     1  UNL1        0.0982
     25 C         142.7414  139.2135  164.2002 C.2     1  UNL1        0.0075
     26 C         141.5468  138.3082  164.1433 C.2     1  UNL1       -0.0009
     27 C         140.4145  138.4991  165.1085 C.ar    1  UNL1        0.0335
     28 C         139.2198  137.5939  165.0516 C.ar    1  UNL1        0.0030
     29 C         138.0876  137.7848  166.0168 C.ar    1  UNL1        0.0002
     30 C         138.1500  138.8809  167.0388 C.ar    1  UNL1        0.0031
     31 C         139.3447  139.7862  167.0957 C.ar    1  UNL1        0.0369
     32 C         140.4769  139.5953  166.1305 C.ar    1  UNL1        0.1385
     33 O         141.6716  140.5005  166.1873 O.3     1  UNL1       -0.4788
     34 C         142.8039  140.3096  165.2222 C.3     1  UNL1        0.1496
     35 C         144.1161  140.5254  164.5283 C.3     1  UNL1        0.0480
     36 C         143.3220  141.4807  166.0032 C.3     1  UNL1        0.0480
@<TRIPOS>BOND
     1     9    10    1
     2    10     7    1
     3     7     8    2
     4     7     1    1
     5     1    11    1
     6    11    12    1
     7    12    13   am
     8    13    14    2
     9    13    16    1
    10    16    17   ar
    11    17    18   ar
    12    18    19    1
    13    18    20   ar
    14    20    21   ar
    15    21    22    1
    16    21    23   ar
    17     1     2    1
    18     2     3    1
    19     3     4    1
    20     4    24    1
    21    24    25    1
    22    25    26    2
    23    26    27    1
    24    27    28   ar
    25    28    29   ar
    26    29    30   ar
    27    30    31   ar
    28    31    32   ar
    29    32    33    1
    30    33    34    1
    31    34    35    1
    32    34    36    1
    33     4     5    1
    34     5     6    1
    35     6     1    1
    36    23    16   ar
    37    34    25    1
    38    32    27   ar
    39    12    15    1
@<TRIPOS>MOLECULE
*****
 36 39 0 0 0
SMALL
GASTEIGER

@<TRIPOS>ATOM
      1 C         141.7383  143.2088  161.7563 C.3     1  UNL1        0.1102
      2 C         140.2933  143.5651  161.9433 C.3     1  UNL1        0.0296
      3 C         139.4089  142.6936  162.7850 C.3     1  UNL1        0.0730
      4 N         139.9694  141.4660  163.4396 N.3     1  UNL1       -0.2691
      5 C         141.4145  141.1097  163.2526 C.3     1  UNL1        0.0730
      6 C         142.2989  141.9811  162.4109 C.3     1  UNL1        0.0296
      7 C         143.1601  143.2885  161.2851 C.2     1  UNL1        0.3177
      8 O         143.4997  142.9469  159.8645 O.2     1  UNL1       -0.2501
      9 C         144.0106  144.8544  163.1757 C.3     1  UNL1        0.2556
     10 O         144.2424  143.7098  162.2344 O.3     1  UNL1       -0.4444
     11 C         141.6715  144.4642  160.9380 C.3     1  UNL1        0.1002
     12 N         140.6894  144.5725  159.8096 N.am    1  UNL1       -0.3003
     13 C         141.1120  145.1753  158.5027 C.2     1  UNL1        0.2459
     14 O         142.5169  145.6699  158.3243 O.2     1  UNL1       -0.2701
     15 H         139.7673  144.2480  159.9266 H       1  UNL1        0.1498
     16 C         140.1299  145.2837  157.3741 C.ar    1  UNL1        0.0550
     17 C         139.8901  146.6088  156.7132 C.ar    1  UNL1        0.0160
     18 C         138.9080  146.7172  155.5847 C.ar    1  UNL1        0.0587
     19 CL        138.6682  148.0423  154.9238 Cl      1  UNL1       -0.0822
     20 C         138.1656  145.5006  155.1170 C.ar    1  UNL1        0.0228
     21 C         138.4054  144.1756  155.7779 C.ar    1  UNL1        0.0587
     22 CL        137.6630  142.9590  155.3102 Cl      1  UNL1       -0.0822
     23 C         139.3875  144.0671  156.9064 C.ar    1  UNL1        0.0160
     24 C         139.0850  140.5946  164.2812 C.3     1  UNL1        0.0982
     25 C         139.2650  140.5587  165.7700 C.2     1  UNL1        0.0075
     26 C         140.1011  141.6022  166.4497 C.2     1  UNL1       -0.0009
     27 C         140.2811  141.5664  167.9385 C.ar    1  UNL1        0.0335
     28 C         141.1172  142.6099  168.6182 C.ar    1  UNL1        0.0030
     29 C         141.2972  142.5740  170.1069 C.ar    1  UNL1        0.0002
     30 C         140.6411  141.4946  170.9159 C.ar    1  UNL1        0.0031
     31 C         139.8050  140.4512  170.2362 C.ar    1  UNL1        0.0369
     32 C         139.6250  140.4870  168.7475 C.ar    1  UNL1        0.1385
     33 O         138.7889  139.4435  168.0677 O.3     1  UNL1       -0.4788
     34 C         138.6089  139.4794  166.5790 C.3     1  UNL1        0.1496
     35 C         138.1451  139.0939  165.2056 C.3     1  UNL1        0.0480
     36 C         137.7917  138.2662  166.9111 C.3     1  UNL1        0.0480
@<TRIPOS>BOND
     1     9    10    1
     2    10     7    1
     3     7     8    2
     4     7     1    1
     5     1    11    1
     6    11    12    1
     7    12    13   am
     8    13    14    2
     9    13    16    1
    10    16    17   ar
    11    17    18   ar
    12    18    19    1
    13    18    20   ar
    14    20    21   ar
    15    21    22    1
    16    21    23   ar
    17     1     2    1
    18     2     3    1
    19     3     4    1
    20     4    24    1
    21    24    25    1
    22    25    26    2
    23    26    27    1
    24    27    28   ar
    25    28    29   ar
    26    29    30   ar
    27    30    31   ar
    28    31    32   ar
    29    32    33    1
    30    33    34    1
    31    34    35    1
    32    34    36    1
    33     4     5    1
    34     5     6    1
    35     6     1    1
    36    23    16   ar
    37    34    25    1
    38    32    27   ar
    39    12    15    1
@<TRIPOS>MOLECULE
*****
 36 39 0 0 0
SMALL
GASTEIGER

@<TRIPOS>ATOM
      1 C         140.6135  143.4659  162.0819 C.3     1  UNL1        0.1102
      2 C         142.0671  143.8059  162.2286 C.3     1  UNL1        0.0296
      3 C         142.9759  142.8964  163.0012 C.3     1  UNL1        0.0730
      4 N         142.4311  141.6469  163.6272 N.3     1  UNL1       -0.2691
      5 C         140.9775  141.3069  163.4806 C.3     1  UNL1        0.0730
      6 C         140.0688  142.2163  162.7080 C.3     1  UNL1        0.0296
      7 C         139.1758  143.5727  161.6680 C.2     1  UNL1        0.3177
      8 O         138.5935  142.5717  160.7147 O.2     1  UNL1       -0.2501
      9 C         137.5042  144.4623  163.4469 C.3     1  UNL1        0.2556
     10 O         138.3203  144.6805  162.2074 O.3     1  UNL1       -0.4444
     11 C         140.6590  144.7525  161.3122 C.3     1  UNL1        0.1002
     12 N         139.9653  144.8583  159.9865 N.am    1  UNL1       -0.3003
     13 C         140.7526  145.1841  158.7519 C.2     1  UNL1        0.2459
     14 O         142.2336  145.4042  158.8432 O.2     1  UNL1       -0.2701
     15 H         138.9933  144.7138  159.9266 H       1  UNL1        0.1498
     16 C         140.0590  145.2898  157.4262 C.ar    1  UNL1        0.0550
     17 C         139.4592  144.0689  156.7941 C.ar    1  UNL1        0.0160
     18 C         138.7655  144.1745  155.4683 C.ar    1  UNL1        0.0587
     19 CL        138.1658  142.9535  154.8362 Cl      1  UNL1       -0.0822
     20 C         138.6717  145.5011  154.7746 C.ar    1  UNL1        0.0228
     21 C         139.2714  146.7221  155.4067 C.ar    1  UNL1        0.0587
     22 CL        139.1776  148.0488  154.7130 Cl      1  UNL1       -0.0822
     23 C         139.9651  146.6165  156.7325 C.ar    1  UNL1        0.0160
     24 C         143.3399  140.7375  164.3999 C.3     1  UNL1        0.0982
     25 C         143.1241  140.5340  165.8703 C.2     1  UNL1        0.0075
     26 C         142.6103  141.6613  166.7160 C.2     1  UNL1       -0.0009
     27 C         142.3945  141.4578  168.1864 C.ar    1  UNL1        0.0335
     28 C         141.8807  142.5851  169.0321 C.ar    1  UNL1        0.0030
     29 C         141.6649  142.3816  170.5024 C.ar    1  UNL1        0.0002
     30 C         141.9630  141.0508  171.1271 C.ar    1  UNL1        0.0031
     31 C         142.4768  139.9235  170.2814 C.ar    1  UNL1        0.0369
     32 C         142.6926  140.1270  168.8111 C.ar    1  UNL1        0.1385
     33 O         143.2064  138.9998  167.9653 O.3     1  UNL1       -0.4788
     34 C         143.4222  139.2033  166.4950 C.3     1  UNL1        0.1496
     35 C         143.7852  138.9091  165.0696 C.3     1  UNL1        0.0480
     36 C         143.8463  137.7704  166.6246 C.3     1  UNL1        0.0480
@<TRIPOS>BOND
     1     9    10    1
     2    10     7    1
     3     7     8    2
     4     7     1    1
     5     1    11    1
     6    11    12    1
     7    12    13   am
     8    13    14    2
     9    13    16    1
    10    16    17   ar
    11    17    18   ar
    12    18    19    1
    13    18    20   ar
    14    20    21   ar
    15    21    22    1
    16    21    23   ar
    17     1     2    1
    18     2     3    1
    19     3     4    1
    20     4    24    1
    21    24    25    1
    22    25    26    2
    23    26    27    1
    24    27    28   ar
    25    28    29   ar
    26    29    30   ar
    27    30    31   ar
    28    31    32   ar
    29    32    33    1
    30    33    34    1
    31    34    35    1
    32    34    36    1
    33     4     5    1
    34     5     6    1
    35     6     1    1
    36    23    16   ar
    37    34    25    1
    38    32    27   ar
    39    12    15    1
@<TRIPOS>MOLECULE
*****
 36 39 0 0 0
SMALL
GASTEIGER

@<TRIPOS>ATOM
      1 C         140.4795  139.1551  157.2806 C.3     1  UNL1        0.1102
      2 C         141.4124  139.5331  158.3928 C.3     1  UNL1        0.0296
      3 C         140.9427  140.4430  159.4890 C.3     1  UNL1        0.0730
      4 N         139.5402  140.9747  159.4731 N.3     1  UNL1       -0.2691
      5 C         138.6073  140.5966  158.3609 C.3     1  UNL1        0.0730
      6 C         139.0770  139.6869  157.2647 C.3     1  UNL1        0.0296
      7 C         139.9726  138.5152  156.0223 C.2     1  UNL1        0.3177
      8 O         138.8283  137.5472  156.0814 O.2     1  UNL1       -0.2501
      9 C         140.4040  137.9389  153.5259 C.3     1  UNL1        0.2556
     10 O         140.6100  138.8433  154.7046 O.3     1  UNL1       -0.4444
     11 C         141.7060  138.4011  156.8595 C.3     1  UNL1        0.1002
     12 N         141.6973  136.9013  156.8482 N.am    1  UNL1       -0.3003
     13 C         142.9341  136.1470  156.4591 C.2     1  UNL1        0.2459
     14 O         144.1796  136.8927  156.0812 O.2     1  UNL1       -0.2701
     15 H         140.8799  136.4118  157.0963 H       1  UNL1        0.1498
     16 C         142.9255  134.6471  156.4478 C.ar    1  UNL1        0.0550
     17 C         143.9545  133.8853  157.2295 C.ar    1  UNL1        0.0160
     18 C         143.9460  132.3854  157.2182 C.ar    1  UNL1        0.0587
     19 CL        144.9750  131.6237  157.9999 Cl      1  UNL1       -0.0822
     20 C         142.9086  131.6472  156.4253 C.ar    1  UNL1        0.0228
     21 C         141.8796  132.4090  155.6436 C.ar    1  UNL1        0.0587
     22 CL        140.8422  131.6708  154.8507 Cl      1  UNL1       -0.0822
     23 C         141.8881  133.9089  155.6548 C.ar    1  UNL1        0.0160
     24 C         139.0706  141.8844  160.5693 C.3     1  UNL1        0.0982
     25 C         138.8007  141.3327  161.9379 C.2     1  UNL1        0.0075
     26 C         139.0387  139.8790  162.2208 C.2     1  UNL1       -0.0009
     27 C         138.7689  139.3273  163.5894 C.ar    1  UNL1        0.0335
     28 C         139.0069  137.8736  163.8723 C.ar    1  UNL1        0.0030
     29 C         138.7370  137.3220  165.2408 C.ar    1  UNL1        0.0002
     30 C         138.2292  138.2240  166.3264 C.ar    1  UNL1        0.0031
     31 C         137.9911  139.6777  166.0434 C.ar    1  UNL1        0.0369
     32 C         138.2610  140.2294  164.6749 C.ar    1  UNL1        0.1385
     33 O         138.0230  141.6831  164.3919 O.3     1  UNL1       -0.4788
     34 C         138.2928  142.2348  163.0234 C.3     1  UNL1        0.1496
     35 C         138.3992  143.2183  161.8959 C.3     1  UNL1        0.0480
     36 C         137.8219  143.4783  163.7174 C.3     1  UNL1        0.0480
@<TRIPOS>BOND
     1     9    10    1
     2    10     7    1
     3     7     8    2
     4     7     1    1
     5     1    11    1
     6    11    12    1
     7    12    13   am
     8    13    14    2
     9    13    16    1
    10    16    17   ar
    11    17    18   ar
    12    18    19    1
    13    18    20   ar
    14    20    21   ar
    15    21    22    1
    16    21    23   ar
    17     1     2    1
    18     2     3    1
    19     3     4    1
    20     4    24    1
    21    24    25    1
    22    25    26    2
    23    26    27    1
    24    27    28   ar
    25    28    29   ar
    26    29    30   ar
    27    30    31   ar
    28    31    32   ar
    29    32    33    1
    30    33    34    1
    31    34    35    1
    32    34    36    1
    33     4     5    1
    34     5     6    1
    35     6     1    1
    36    23    16   ar
    37    34    25    1
    38    32    27   ar
    39    12    15    1
@<TRIPOS>MOLECULE
*****
 36 39 0 0 0
SMALL
GASTEIGER

@<TRIPOS>ATOM
      1 C         142.7597  139.1632  158.3798 C.3     1  UNL1        0.1102
      2 C         141.8200  138.2984  159.1667 C.3     1  UNL1        0.0296
      3 C         141.8355  138.3449  160.6660 C.3     1  UNL1        0.0730
      4 N         142.7906  139.2562  161.3782 N.3     1  UNL1       -0.2691
      5 C         143.7303  140.1209  160.5913 C.3     1  UNL1        0.0730
      6 C         143.7148  140.0744  159.0922 C.3     1  UNL1        0.0296
      7 C         143.4510  139.7866  157.2037 C.2     1  UNL1        0.3177
      8 O         142.7225  139.9430  155.9019 O.2     1  UNL1       -0.2501
      9 C         145.6310  140.6802  156.1087 C.3     1  UNL1        0.2556
     10 O         144.8709  140.2537  157.3294 O.3     1  UNL1       -0.4444
     11 C         142.0447  138.4684  157.2591 C.3     1  UNL1        0.1002
     12 N         141.9849  136.9701  157.2222 N.am    1  UNL1       -0.3003
     13 C         143.0748  136.1924  156.5459 C.2     1  UNL1        0.2459
     14 O         144.2244  136.9132  155.9065 O.2     1  UNL1       -0.2701
     15 H         141.2303  136.4971  157.6419 H       1  UNL1        0.1498
     16 C         143.0151  134.6941  156.5090 C.ar    1  UNL1        0.0550
     17 C         144.0174  133.8845  157.2771 C.ar    1  UNL1        0.0160
     18 C         143.9578  132.3861  157.2403 C.ar    1  UNL1        0.0587
     19 CL        144.9601  131.5765  158.0083 Cl      1  UNL1       -0.0822
     20 C         142.8958  131.6974  156.4354 C.ar    1  UNL1        0.0228
     21 C         141.8935  132.5070  155.6673 C.ar    1  UNL1        0.0587
     22 CL        140.8316  131.8182  154.8624 Cl      1  UNL1       -0.0822
     23 C         141.9531  134.0053  155.7041 C.ar    1  UNL1        0.0160
     24 C         142.8061  139.3027  162.8774 C.3     1  UNL1        0.0982
     25 C         142.0422  140.3707  163.6026 C.2     1  UNL1        0.0075
     26 C         141.2296  141.3673  162.8303 C.2     1  UNL1       -0.0009
     27 C         140.4657  142.4353  163.5555 C.ar    1  UNL1        0.0335
     28 C         139.6531  143.4319  162.7832 C.ar    1  UNL1        0.0030
     29 C         138.8893  144.4998  163.5083 C.ar    1  UNL1        0.0002
     30 C         138.9381  144.5713  165.0058 C.ar    1  UNL1        0.0031
     31 C         139.7508  143.5748  165.7782 C.ar    1  UNL1        0.0369
     32 C         140.5146  142.5068  165.0530 C.ar    1  UNL1        0.1385
     33 O         141.3273  141.5102  165.8253 O.3     1  UNL1       -0.4788
     34 C         142.0911  140.4422  165.1001 C.3     1  UNL1        0.1496
     35 C         142.9789  139.2559  164.8668 C.3     1  UNL1        0.0480
     36 C         142.4482  140.1017  166.5166 C.3     1  UNL1        0.0480
@<TRIPOS>BOND
     1     9    10    1
     2    10     7    1
     3     7     8    2
     4     7     1    1
     5     1    11    1
     6    11    12    1
     7    12    13   am
     8    13    14    2
     9    13    16    1
    10    16    17   ar
    11    17    18   ar
    12    18    19    1
    13    18    20   ar
    14    20    21   ar
    15    21    22    1
    16    21    23   ar
    17     1     2    1
    18     2     3    1
    19     3     4    1
    20     4    24    1
    21    24    25    1
    22    25    26    2
    23    26    27    1
    24    27    28   ar
    25    28    29   ar
    26    29    30   ar
    27    30    31   ar
    28    31    32   ar
    29    32    33    1
    30    33    34    1
    31    34    35    1
    32    34    36    1
    33     4     5    1
    34     5     6    1
    35     6     1    1
    36    23    16   ar
    37    34    25    1
    38    32    27   ar
    39    12    15    1
@<TRIPOS>MOLECULE
*****
 36 39 0 0 0
SMALL
GASTEIGER

@<TRIPOS>ATOM
      1 C         143.0951  142.6482  159.5916 C.3     1  UNL1        0.1102
      2 C         143.9125  141.5794  160.2544 C.3     1  UNL1        0.0296
      3 C         144.0688  141.5715  161.7463 C.3     1  UNL1        0.0730
      4 N         143.4077  142.6324  162.5753 N.3     1  UNL1       -0.2691
      5 C         142.5902  143.7013  161.9125 C.3     1  UNL1        0.0730
      6 C         142.4339  143.7092  160.4207 C.3     1  UNL1        0.0296
      7 C         142.4266  143.4447  158.5106 C.2     1  UNL1        0.3177
      8 O         141.4259  142.7891  157.6057 O.2     1  UNL1       -0.2501
      9 C         141.9437  145.7451  157.4037 C.3     1  UNL1        0.2556
     10 O         142.7588  144.8968  158.3343 O.3     1  UNL1       -0.4444
     11 C         143.5241  141.8639  158.3872 C.3     1  UNL1        0.1002
     12 N         144.5141  142.4495  157.4244 N.am    1  UNL1       -0.3003
     13 C         145.3596  141.5465  156.5761 C.2     1  UNL1        0.2459
     14 O         145.2150  140.0578  156.6905 O.2     1  UNL1       -0.2701
     15 H         144.6089  143.4265  157.3493 H       1  UNL1        0.1498
     16 C         146.3496  142.1320  155.6133 C.ar    1  UNL1        0.0550
     17 C         145.9213  143.2059  154.6575 C.ar    1  UNL1        0.0160
     18 C         146.9112  143.7914  153.6947 C.ar    1  UNL1        0.0587
     19 CL        146.4829  144.8653  152.7390 Cl      1  UNL1       -0.0822
     20 C         148.3295  143.3032  153.6876 C.ar    1  UNL1        0.0228
     21 C         148.7578  142.2293  154.6434 C.ar    1  UNL1        0.0587
     22 CL        150.1761  141.7411  154.6363 Cl      1  UNL1       -0.0822
     23 C         147.7679  141.6438  155.6062 C.ar    1  UNL1        0.0160
     24 C         143.5640  142.6245  164.0670 C.3     1  UNL1        0.0982
     25 C         142.5430  141.9371  164.9245 C.2     1  UNL1        0.0075
     26 C         141.4163  141.1791  164.2874 C.2     1  UNL1       -0.0009
     27 C         140.3953  140.4917  165.1449 C.ar    1  UNL1        0.0335
     28 C         139.2687  139.7336  164.5078 C.ar    1  UNL1        0.0030
     29 C         138.2478  139.0463  165.3652 C.ar    1  UNL1        0.0002
     30 C         138.3535  139.1171  166.8598 C.ar    1  UNL1        0.0031
     31 C         139.4802  139.8752  167.4970 C.ar    1  UNL1        0.0369
     32 C         140.5011  140.5625  166.6395 C.ar    1  UNL1        0.1385
     33 O         141.6278  141.3206  167.2766 O.3     1  UNL1       -0.4788
     34 C         142.6487  142.0079  166.4191 C.3     1  UNL1        0.1496
     35 C         143.8514  142.8174  166.0343 C.3     1  UNL1        0.0480
     36 C         143.1721  142.3598  167.7800 C.3     1  UNL1        0.0480
@<TRIPOS>BOND
     1     9    10    1
     2    10     7    1
     3     7     8    2
     4     7     1    1
     5     1    11    1
     6    11    12    1
     7    12    13   am
     8    13    14    2
     9    13    16    1
    10    16    17   ar
    11    17    18   ar
    12    18    19    1
    13    18    20   ar
    14    20    21   ar
    15    21    22    1
    16    21    23   ar
    17     1     2    1
    18     2     3    1
    19     3     4    1
    20     4    24    1
    21    24    25    1
    22    25    26    2
    23    26    27    1
    24    27    28   ar
    25    28    29   ar
    26    29    30   ar
    27    30    31   ar
    28    31    32   ar
    29    32    33    1
    30    33    34    1
    31    34    35    1
    32    34    36    1
    33     4     5    1
    34     5     6    1
    35     6     1    1
    36    23    16   ar
    37    34    25    1
    38    32    27   ar
    39    12    15    1
@<TRIPOS>MOLECULE
*****
 36 39 0 0 0
SMALL
GASTEIGER

@<TRIPOS>ATOM
      1 C         143.6472  139.3519  161.2253 C.3     1  UNL1        0.1102
      2 C         143.2643  137.9391  160.8977 C.3     1  UNL1        0.0296
      3 C         142.9851  137.5479  159.4767 C.3     1  UNL1        0.0730
      4 N         143.0888  138.5696  158.3834 N.3     1  UNL1       -0.2691
      5 C         143.4717  139.9824  158.7110 C.3     1  UNL1        0.0730
      6 C         143.7509  140.3736  160.1318 C.3     1  UNL1        0.0296
      7 C         144.0417  140.5550  162.0295 C.2     1  UNL1        0.3177
      8 O         145.3337  140.5570  162.7916 O.2     1  UNL1       -0.2501
      9 C         143.6831  143.0795  162.5280 C.3     1  UNL1        0.2556
     10 O         143.1442  141.7561  162.0717 O.3     1  UNL1       -0.4444
     11 C         143.6805  138.7481  162.5980 C.3     1  UNL1        0.1002
     12 N         142.5945  139.0644  163.5830 N.am    1  UNL1       -0.3003
     13 C         142.8862  139.0412  165.0542 C.2     1  UNL1        0.2459
     14 O         144.2641  138.7015  165.5402 O.2     1  UNL1       -0.2701
     15 H         141.6902  139.2874  163.2640 H       1  UNL1        0.1498
     16 C         141.8003  139.3576  166.0393 C.ar    1  UNL1        0.0550
     17 C         142.1492  139.9220  167.3846 C.ar    1  UNL1        0.0160
     18 C         141.0633  140.2384  168.3698 C.ar    1  UNL1        0.0587
     19 CL        141.4123  140.8028  169.7151 Cl      1  UNL1       -0.0822
     20 C         139.6285  139.9904  168.0098 C.ar    1  UNL1        0.0228
     21 C         139.2795  139.4260  166.6645 C.ar    1  UNL1        0.0587
     22 CL        137.8446  139.1781  166.3045 Cl      1  UNL1       -0.0822
     23 C         140.3654  139.1096  165.6793 C.ar    1  UNL1        0.0160
     24 C         142.8096  138.1784  156.9625 C.3     1  UNL1        0.0982
     25 C         142.5445  136.7427  156.6181 C.2     1  UNL1        0.0075
     26 C         143.4902  135.6737  157.0796 C.2     1  UNL1       -0.0009
     27 C         143.2251  134.2380  156.7351 C.ar    1  UNL1        0.0335
     28 C         144.1708  133.1691  157.1966 C.ar    1  UNL1        0.0030
     29 C         143.9057  131.7335  156.8522 C.ar    1  UNL1        0.0002
     30 C         142.6949  131.3668  156.0463 C.ar    1  UNL1        0.0031
     31 C         141.7492  132.4357  155.5848 C.ar    1  UNL1        0.0369
     32 C         142.0143  133.8713  155.9292 C.ar    1  UNL1        0.1385
     33 O         141.0686  134.9404  155.4677 O.3     1  UNL1       -0.4788
     34 C         141.3337  136.3760  155.8121 C.3     1  UNL1        0.1496
     35 C         141.1570  137.8637  155.8855 C.3     1  UNL1        0.0480
     36 C         140.0616  136.5260  155.0317 C.3     1  UNL1        0.0480
@<TRIPOS>BOND
     1     9    10    1
     2    10     7    1
     3     7     8    2
     4     7     1    1
     5     1    11    1
     6    11    12    1
     7    12    13   am
     8    13    14    2
     9    13    16    1
    10    16    17   ar
    11    17    18   ar
    12    18    19    1
    13    18    20   ar
    14    20    21   ar
    15    21    22    1
    16    21    23   ar
    17     1     2    1
    18     2     3    1
    19     3     4    1
    20     4    24    1
    21    24    25    1
    22    25    26    2
    23    26    27    1
    24    27    28   ar
    25    28    29   ar
    26    29    30   ar
    27    30    31   ar
    28    31    32   ar
    29    32    33    1
    30    33    34    1
    31    34    35    1
    32    34    36    1
    33     4     5    1
    34     5     6    1
    35     6     1    1
    36    23    16   ar
    37    34    25    1
    38    32    27   ar
    39    12    15    1
@<TRIPOS>MOLECULE
*****
 36 39 0 0 0
SMALL
GASTEIGER

@<TRIPOS>ATOM
      1 C         144.4153  141.1697  161.5743 C.3     1  UNL1        0.1102
      2 C         143.9842  139.9433  160.8259 C.3     1  UNL1        0.0296
      3 C         143.6937  140.0248  159.3565 C.3     1  UNL1        0.0730
      4 N         143.8345  141.3325  158.6355 N.3     1  UNL1       -0.2691
      5 C         144.2657  142.5589  159.3839 C.3     1  UNL1        0.0730
      6 C         144.5561  142.4776  160.8532 C.3     1  UNL1        0.0296
      7 C         144.8500  142.0478  162.7100 C.2     1  UNL1        0.3177
      8 O         146.0808  141.7039  163.4954 O.2     1  UNL1       -0.2501
      9 C         144.1800  143.8817  164.4241 C.3     1  UNL1        0.2556
     10 O         144.0539  143.2700  163.0603 O.3     1  UNL1       -0.4444
     11 C         144.4255  140.1669  162.6897 C.3     1  UNL1        0.1002
     12 N         143.5382  140.3633  163.8830 N.am    1  UNL1       -0.3003
     13 C         142.5223  139.3198  164.2422 C.2     1  UNL1        0.2459
     14 O         142.3938  138.0798  163.4080 O.2     1  UNL1       -0.2701
     15 H         143.6226  141.1772  164.4305 H       1  UNL1        0.1498
     16 C         141.6350  139.5162  165.4355 C.ar    1  UNL1        0.0550
     17 C         142.1995  140.0821  166.7048 C.ar    1  UNL1        0.0160
     18 C         141.3122  140.2785  167.8981 C.ar    1  UNL1        0.0587
     19 CL        141.8767  140.8445  169.1674 Cl      1  UNL1       -0.0822
     20 C         139.8604  139.9090  167.8223 C.ar    1  UNL1        0.0228
     21 C         139.2960  139.3430  166.5530 C.ar    1  UNL1        0.0587
     22 CL        137.8442  138.9734  166.4771 Cl      1  UNL1       -0.0822
     23 C         140.1832  139.1466  165.3596 C.ar    1  UNL1        0.0160
     24 C         143.5441  141.4139  157.1662 C.3     1  UNL1        0.0982
     25 C         144.5730  141.9721  156.2281 C.2     1  UNL1        0.0075
     26 C         145.9960  141.5055  156.3120 C.2     1  UNL1       -0.0009
     27 C         147.0249  142.0637  155.3739 C.ar    1  UNL1        0.0335
     28 C         148.4480  141.5971  155.4578 C.ar    1  UNL1        0.0030
     29 C         149.4768  142.1553  154.5198 C.ar    1  UNL1        0.0002
     30 C         149.0825  143.1800  153.4978 C.ar    1  UNL1        0.0031
     31 C         147.6594  143.6465  153.4138 C.ar    1  UNL1        0.0369
     32 C         146.6306  143.0884  154.3519 C.ar    1  UNL1        0.1385
     33 O         145.2074  143.5549  154.2680 O.3     1  UNL1       -0.4788
     34 C         144.1786  142.9968  155.2061 C.3     1  UNL1        0.1496
     35 C         142.8530  142.7667  155.8692 C.3     1  UNL1        0.0480
     36 C         143.3240  143.9416  154.4144 C.3     1  UNL1        0.0480
@<TRIPOS>BOND
     1     9    10    1
     2    10     7    1
     3     7     8    2
     4     7     1    1
     5     1    11    1
     6    11    12    1
     7    12    13   am
     8    13    14    2
     9    13    16    1
    10    16    17   ar
    11    17    18   ar
    12    18    19    1
    13    18    20   ar
    14    20    21   ar
    15    21    22    1
    16    21    23   ar
    17     1     2    1
    18     2     3    1
    19     3     4    1
    20     4    24    1
    21    24    25    1
    22    25    26    2
    23    26    27    1
    24    27    28   ar
    25    28    29   ar
    26    29    30   ar
    27    30    31   ar
    28    31    32   ar
    29    32    33    1
    30    33    34    1
    31    34    35    1
    32    34    36    1
    33     4     5    1
    34     5     6    1
    35     6     1    1
    36    23    16   ar
    37    34    25    1
    38    32    27   ar
    39    12    15    1
