@<TRIPOS>MOLECULE
*****
 34 37 0 0 0
SMALL
GASTEIGER

@<TRIPOS>ATOM
      1 C         140.6533  142.9159  165.2845 C.ar    1  UNL1        0.0305
      2 C         140.9214  142.5545  166.7154 C.ar    1  UNL1        0.0049
      3 C         142.3276  142.3089  167.1760 C.ar    1  UNL1        0.0536
      4 C         143.4657  142.4246  166.2058 C.ar    1  UNL1        0.0107
      5 C         143.1976  142.7860  164.7749 C.ar    1  UNL1        0.0735
      6 C         144.3356  142.9017  163.8046 C.ar    1  UNL1        0.2030
      7 O         145.7418  142.6561  164.2653 O.2     1  UNL1       -0.2863
      8 C         144.0675  143.2631  162.3738 C.ar    1  UNL1        0.0955
      9 C         142.6613  143.5088  161.9131 C.ar    1  UNL1        0.2024
     10 O         141.5232  143.3931  162.8833 O.2     1  UNL1       -0.4400
     11 C         141.7914  143.0317  164.3143 C.ar    1  UNL1        0.1474
     12 N         142.3931  143.8702  160.4822 N.pl3   1  UNL1       -0.2742
     13 C         141.3611  144.9073  160.1513 C.3     1  UNL1        0.1257
     14 C         141.0930  145.2687  158.7203 C.3     1  UNL1        0.1637
     15 O         141.8569  144.5930  157.6204 O.3     1  UNL1       -0.3501
     16 C         142.8889  143.5560  157.9513 C.3     1  UNL1        0.1637
     17 C         143.1570  143.1946  159.3822 C.3     1  UNL1        0.1257
     18 C         142.5958  141.9475  168.6070 C.2     1  UNL1        0.2491
     19 O         142.7769  143.0274  169.6320 O.2     1  UNL1       -0.2699
     20 N         142.6828  140.5060  169.0128 N.am    1  UNL1       -0.2726
     21 C         142.9510  140.1446  170.4436 C.3     1  UNL1        0.1152
     22 C         142.5017  139.4260  167.9876 C.3     1  UNL1        0.1152
     23 C         138.5405  144.4263  165.2131 C.3     1  UNL1        0.0264
     24 C         139.2470  143.1616  164.8239 C.3     1  UNL1        0.0984
     25 N         138.5474  142.1427  163.9740 N.pl3   1  UNL1       -0.3034
     26 C         137.7216  142.5833  162.8018 C.3     1  UNL1        0.1124
     27 C         138.6736  140.6832  164.2962 C.ar    1  UNL1        0.0526
     28 C         138.1696  140.1584  165.6079 C.ar    1  UNL1        0.0443
     29 C         138.2957  138.6989  165.9302 C.ar    1  UNL1        0.1436
     30 F         137.7917  138.1742  167.2419 F       1  UNL1       -0.2041
     31 C         138.9259  137.7642  164.9407 C.ar    1  UNL1        0.0593
     32 C         139.4300  138.2889  163.6290 C.ar    1  UNL1        0.1436
     33 F         140.0602  137.3541  162.6396 F       1  UNL1       -0.2041
     34 C         139.3038  139.7484  163.3068 C.ar    1  UNL1        0.0443
@<TRIPOS>BOND
     1    24    23    1
     2    24     1    1
     3     1     2   ar
     4     2     3   ar
     5     3    18    1
     6    18    19    2
     7    18    20   am
     8    20    21    1
     9    20    22    1
    10     3     4   ar
    11     4     5   ar
    12     5     6   ar
    13     6     7    2
    14     6     8   ar
    15     8     9   ar
    16     9    12    1
    17    12    13    1
    18    13    14    1
    19    14    15    1
    20    15    16    1
    21    16    17    1
    22     9    10   ar
    23    10    11   ar
    24    24    25    1
    25    25    26    1
    26    25    27    1
    27    27    28   ar
    28    28    29   ar
    29    29    30    1
    30    29    31   ar
    31    31    32   ar
    32    32    33    1
    33    32    34   ar
    34    11     1   ar
    35    34    27   ar
    36    11     5   ar
    37    17    12    1
@<TRIPOS>MOLECULE
*****
 34 37 0 0 0
SMALL
GASTEIGER

@<TRIPOS>ATOM
      1 C         139.8602  142.1839  165.3542 C.ar    1  UNL1        0.0305
      2 C         140.0223  142.2017  166.8452 C.ar    1  UNL1        0.0049
      3 C         139.8830  140.9310  167.6300 C.ar    1  UNL1        0.0536
      4 C         139.5816  139.6425  166.9236 C.ar    1  UNL1        0.0107
      5 C         139.4195  139.6247  165.4325 C.ar    1  UNL1        0.0735
      6 C         139.1181  138.3362  164.7262 C.ar    1  UNL1        0.2030
      7 O         138.9788  137.0655  165.5109 O.2     1  UNL1       -0.2863
      8 C         138.9560  138.3184  163.2351 C.ar    1  UNL1        0.0955
      9 C         139.0953  139.5891  162.4503 C.ar    1  UNL1        0.2024
     10 O         139.3967  140.8776  163.1566 O.2     1  UNL1       -0.4400
     11 C         139.5588  140.8954  164.6478 C.ar    1  UNL1        0.1474
     12 N         138.9333  139.5713  160.9592 N.pl3   1  UNL1       -0.2742
     13 C         139.7410  138.6189  160.1283 C.3     1  UNL1        0.1257
     14 C         139.5789  138.6012  158.6371 C.3     1  UNL1        0.1637
     15 O         138.6090  139.5358  157.9770 O.3     1  UNL1       -0.3501
     16 C         137.8013  140.4882  158.8079 C.3     1  UNL1        0.1637
     17 C         137.9633  140.5060  160.2990 C.3     1  UNL1        0.1257
     18 C         140.0451  140.9487  169.1211 C.2     1  UNL1        0.2491
     19 O         138.8357  141.0090  170.0063 O.2     1  UNL1       -0.2699
     20 N         141.4166  140.9062  169.7270 N.am    1  UNL1       -0.2726
     21 C         141.5787  140.9240  171.2181 C.3     1  UNL1        0.1152
     22 C         142.6261  140.8460  168.8417 C.3     1  UNL1        0.1152
     23 C         139.1233  144.6306  164.8844 C.3     1  UNL1        0.0264
     24 C         139.9995  143.4546  164.5693 C.3     1  UNL1        0.0984
     25 N         141.0151  143.5494  163.4695 N.pl3   1  UNL1       -0.3034
     26 C         140.6163  144.0791  162.1240 C.3     1  UNL1        0.1124
     27 C         142.4295  143.1143  163.7151 C.ar    1  UNL1        0.0526
     28 C         143.0378  142.0315  162.8741 C.ar    1  UNL1        0.0443
     29 C         144.4522  141.5964  163.1196 C.ar    1  UNL1        0.1436
     30 F         145.0605  140.5136  162.2786 F       1  UNL1       -0.2041
     31 C         145.2581  142.2442  164.2062 C.ar    1  UNL1        0.0593
     32 C         144.6498  143.3271  165.0473 C.ar    1  UNL1        0.1436
     33 F         145.4558  143.9749  166.1339 F       1  UNL1       -0.2041
     34 C         143.2354  143.7621  164.8017 C.ar    1  UNL1        0.0443
@<TRIPOS>BOND
     1    24    23    1
     2    24     1    1
     3     1     2   ar
     4     2     3   ar
     5     3    18    1
     6    18    19    2
     7    18    20   am
     8    20    21    1
     9    20    22    1
    10     3     4   ar
    11     4     5   ar
    12     5     6   ar
    13     6     7    2
    14     6     8   ar
    15     8     9   ar
    16     9    12    1
    17    12    13    1
    18    13    14    1
    19    14    15    1
    20    15    16    1
    21    16    17    1
    22     9    10   ar
    23    10    11   ar
    24    24    25    1
    25    25    26    1
    26    25    27    1
    27    27    28   ar
    28    28    29   ar
    29    29    30    1
    30    29    31   ar
    31    31    32   ar
    32    32    33    1
    33    32    34   ar
    34    11     1   ar
    35    34    27   ar
    36    11     5   ar
    37    17    12    1
@<TRIPOS>MOLECULE
*****
 34 37 0 0 0
SMALL
GASTEIGER

@<TRIPOS>ATOM
      1 C         141.7166  140.4250  165.3052 C.ar    1  UNL1        0.0305
      2 C         141.6589  140.2610  166.7950 C.ar    1  UNL1        0.0049
      3 C         142.4385  141.1860  167.6820 C.ar    1  UNL1        0.0536
      4 C         143.2756  142.2749  167.0792 C.ar    1  UNL1        0.0107
      5 C         143.3333  142.4389  165.5893 C.ar    1  UNL1        0.0735
      6 C         144.1704  143.5278  164.9865 C.ar    1  UNL1        0.2030
      7 O         144.9499  144.4527  165.8735 O.2     1  UNL1       -0.2863
      8 C         144.2281  143.6918  163.4966 C.ar    1  UNL1        0.0955
      9 C         143.4485  142.7668  162.6095 C.ar    1  UNL1        0.2024
     10 O         142.6114  141.6779  163.2124 O.2     1  UNL1       -0.4400
     11 C         142.5537  141.5139  164.7023 C.ar    1  UNL1        0.1474
     12 N         143.5062  142.9308  161.1196 N.pl3   1  UNL1       -0.2742
     13 C         142.3853  143.6172  160.3967 C.3     1  UNL1        0.1257
     14 C         142.4430  143.7812  158.9068 C.3     1  UNL1        0.1637
     15 O         143.6215  143.2588  158.1398 O.3     1  UNL1       -0.3501
     16 C         144.7423  142.5724  158.8628 C.3     1  UNL1        0.1637
     17 C         144.6847  142.4084  160.3526 C.3     1  UNL1        0.1257
     18 C         142.3808  141.0220  169.1720 C.2     1  UNL1        0.2491
     19 O         143.3003  140.0543  169.8561 O.2     1  UNL1       -0.2699
     20 N         141.4037  141.8258  169.9777 N.am    1  UNL1       -0.2726
     21 C         141.3461  141.6618  171.4676 C.3     1  UNL1        0.1152
     22 C         140.4842  142.7935  169.2935 C.3     1  UNL1        0.1152
     23 C         141.6413  138.4058  163.6721 C.3     1  UNL1        0.0264
     24 C         140.9370  139.5001  164.4181 C.3     1  UNL1        0.0984
     25 N         139.4534  139.6695  164.2770 N.pl3   1  UNL1       -0.3034
     26 C         138.5310  138.5495  164.6578 C.3     1  UNL1        0.1124
     27 C         138.8919  140.9589  163.7552 C.ar    1  UNL1        0.0526
     28 C         138.8046  141.1949  162.2764 C.ar    1  UNL1        0.0443
     29 C         138.2432  142.4843  161.7546 C.ar    1  UNL1        0.1436
     30 F         138.1559  142.7203  160.2758 F       1  UNL1       -0.2041
     31 C         137.7691  143.5376  162.7115 C.ar    1  UNL1        0.0593
     32 C         137.8565  143.3016  164.1902 C.ar    1  UNL1        0.1436
     33 F         137.3823  144.3550  165.1471 F       1  UNL1       -0.2041
     34 C         138.4178  142.0123  164.7121 C.ar    1  UNL1        0.0443
@<TRIPOS>BOND
     1    24    23    1
     2    24     1    1
     3     1     2   ar
     4     2     3   ar
     5     3    18    1
     6    18    19    2
     7    18    20   am
     8    20    21    1
     9    20    22    1
    10     3     4   ar
    11     4     5   ar
    12     5     6   ar
    13     6     7    2
    14     6     8   ar
    15     8     9   ar
    16     9    12    1
    17    12    13    1
    18    13    14    1
    19    14    15    1
    20    15    16    1
    21    16    17    1
    22     9    10   ar
    23    10    11   ar
    24    24    25    1
    25    25    26    1
    26    25    27    1
    27    27    28   ar
    28    28    29   ar
    29    29    30    1
    30    29    31   ar
    31    31    32   ar
    32    32    33    1
    33    32    34   ar
    34    11     1   ar
    35    34    27   ar
    36    11     5   ar
    37    17    12    1
@<TRIPOS>MOLECULE
*****
 34 37 0 0 0
SMALL
GASTEIGER

@<TRIPOS>ATOM
      1 C         142.7909  141.6864  165.1464 C.ar    1  UNL1        0.0305
      2 C         142.5680  141.5648  166.6247 C.ar    1  UNL1        0.0049
      3 C         142.1307  140.2557  167.2121 C.ar    1  UNL1        0.0536
      4 C         141.9164  139.0682  166.3211 C.ar    1  UNL1        0.0107
      5 C         142.1393  139.1898  164.8428 C.ar    1  UNL1        0.0735
      6 C         141.9250  138.0022  163.9518 C.ar    1  UNL1        0.2030
      7 O         141.4878  136.6931  164.5392 O.2     1  UNL1       -0.2863
      8 C         142.1479  138.1238  162.4735 C.ar    1  UNL1        0.0955
      9 C         142.5852  139.4330  161.8861 C.ar    1  UNL1        0.2024
     10 O         142.7995  140.6205  162.7771 O.2     1  UNL1       -0.4400
     11 C         142.5766  140.4989  164.2555 C.ar    1  UNL1        0.1474
     12 N         142.8081  139.5545  160.4078 N.pl3   1  UNL1       -0.2742
     13 C         143.5006  140.7628  159.8505 C.3     1  UNL1        0.1257
     14 C         143.7235  140.8843  158.3721 C.3     1  UNL1        0.1637
     15 O         143.2539  139.7976  157.4510 O.3     1  UNL1       -0.3501
     16 C         142.5614  138.5893  158.0083 C.3     1  UNL1        0.1637
     17 C         142.3385  138.4678  159.4866 C.3     1  UNL1        0.1257
     18 C         141.9078  140.1341  168.6905 C.2     1  UNL1        0.2491
     19 O         143.0809  140.0691  169.6230 O.2     1  UNL1       -0.2699
     20 N         140.5118  140.0776  169.2363 N.am    1  UNL1       -0.2726
     21 C         140.2888  139.9559  170.7146 C.3     1  UNL1        0.1152
     22 C         139.3387  140.1426  168.3037 C.3     1  UNL1        0.1152
     23 C         144.4570  143.6789  165.0815 C.3     1  UNL1        0.0264
     24 C         143.2281  142.9956  164.5590 C.3     1  UNL1        0.0984
     25 N         142.4366  143.6213  163.4492 N.pl3   1  UNL1       -0.3034
     26 C         143.1285  144.0764  162.1985 C.3     1  UNL1        0.1124
     27 C         140.9529  143.7920  163.5899 C.ar    1  UNL1        0.0526
     28 C         140.0304  143.2168  162.5564 C.ar    1  UNL1        0.0443
     29 C         138.5468  143.3875  162.6971 C.ar    1  UNL1        0.1436
     30 F         137.6243  142.8122  161.6637 F       1  UNL1       -0.2041
     31 C         137.9858  144.1334  163.8713 C.ar    1  UNL1        0.0593
     32 C         138.9083  144.7087  164.9048 C.ar    1  UNL1        0.1436
     33 F         138.3472  145.4546  166.0790 F       1  UNL1       -0.2041
     34 C         140.3919  144.5380  164.7641 C.ar    1  UNL1        0.0443
@<TRIPOS>BOND
     1    24    23    1
     2    24     1    1
     3     1     2   ar
     4     2     3   ar
     5     3    18    1
     6    18    19    2
     7    18    20   am
     8    20    21    1
     9    20    22    1
    10     3     4   ar
    11     4     5   ar
    12     5     6   ar
    13     6     7    2
    14     6     8   ar
    15     8     9   ar
    16     9    12    1
    17    12    13    1
    18    13    14    1
    19    14    15    1
    20    15    16    1
    21    16    17    1
    22     9    10   ar
    23    10    11   ar
    24    24    25    1
    25    25    26    1
    26    25    27    1
    27    27    28   ar
    28    28    29   ar
    29    29    30    1
    30    29    31   ar
    31    31    32   ar
    32    32    33    1
    33    32    34   ar
    34    11     1   ar
    35    34    27   ar
    36    11     5   ar
    37    17    12    1
@<TRIPOS>MOLECULE
*****
 34 37 0 0 0
SMALL
GASTEIGER

@<TRIPOS>ATOM
      1 C         139.9908  141.1262  165.1121 C.ar    1  UNL1        0.0305
      2 C         139.7103  141.2617  166.5794 C.ar    1  UNL1        0.0049
      3 C         140.5926  140.5735  167.5783 C.ar    1  UNL1        0.0536
      4 C         141.7554  139.7497  167.1099 C.ar    1  UNL1        0.0107
      5 C         142.0359  139.6142  165.6426 C.ar    1  UNL1        0.0735
      6 C         143.1986  138.7904  165.1743 C.ar    1  UNL1        0.2030
      7 O         144.0809  138.1022  166.1731 O.2     1  UNL1       -0.2863
      8 C         143.4791  138.6549  163.7070 C.ar    1  UNL1        0.0955
      9 C         142.5968  139.3431  162.7080 C.ar    1  UNL1        0.2024
     10 O         141.4340  140.1669  163.1764 O.2     1  UNL1       -0.4400
     11 C         141.1536  140.3024  164.6438 C.ar    1  UNL1        0.1474
     12 N         142.8772  139.2076  161.2407 N.pl3   1  UNL1       -0.2742
     13 C         142.4778  137.9582  160.5131 C.3     1  UNL1        0.1257
     14 C         142.7584  137.8227  159.0457 C.3     1  UNL1        0.1637
     15 O         143.4382  138.9366  158.3061 O.3     1  UNL1       -0.3501
     16 C         143.8376  140.1860  159.0338 C.3     1  UNL1        0.1637
     17 C         143.5572  140.3215  160.5011 C.3     1  UNL1        0.1257
     18 C         140.3122  140.7090  169.0456 C.2     1  UNL1        0.2491
     19 O         139.3049  139.8125  169.7026 O.2     1  UNL1       -0.2699
     20 N         141.0391  141.7409  169.8560 N.am    1  UNL1       -0.2726
     21 C         140.7587  141.8765  171.3232 C.3     1  UNL1        0.1152
     22 C         142.0465  142.6374  169.1989 C.3     1  UNL1        0.1152
     23 C         137.9576  141.0769  163.4954 C.3     1  UNL1        0.0264
     24 C         139.1085  141.8144  164.1131 C.3     1  UNL1        0.0984
     25 N         139.3770  143.2400  163.7319 N.pl3   1  UNL1       -0.3034
     26 C         138.2755  144.2557  163.8030 C.3     1  UNL1        0.1124
     27 C         140.7472  143.6501  163.2796 C.ar    1  UNL1        0.0526
     28 C         141.6877  144.3127  164.2420 C.ar    1  UNL1        0.0443
     29 C         143.0578  144.7228  163.7897 C.ar    1  UNL1        0.1436
     30 F         143.9984  145.3854  164.7522 F       1  UNL1       -0.2041
     31 C         143.4875  144.4701  162.3750 C.ar    1  UNL1        0.0593
     32 C         142.5470  143.8075  161.4125 C.ar    1  UNL1        0.1436
     33 F         142.9766  143.5548  159.9977 F       1  UNL1       -0.2041
     34 C         141.1768  143.3974  161.8648 C.ar    1  UNL1        0.0443
@<TRIPOS>BOND
     1    24    23    1
     2    24     1    1
     3     1     2   ar
     4     2     3   ar
     5     3    18    1
     6    18    19    2
     7    18    20   am
     8    20    21    1
     9    20    22    1
    10     3     4   ar
    11     4     5   ar
    12     5     6   ar
    13     6     7    2
    14     6     8   ar
    15     8     9   ar
    16     9    12    1
    17    12    13    1
    18    13    14    1
    19    14    15    1
    20    15    16    1
    21    16    17    1
    22     9    10   ar
    23    10    11   ar
    24    24    25    1
    25    25    26    1
    26    25    27    1
    27    27    28   ar
    28    28    29   ar
    29    29    30    1
    30    29    31   ar
    31    31    32   ar
    32    32    33    1
    33    32    34   ar
    34    11     1   ar
    35    34    27   ar
    36    11     5   ar
    37    17    12    1
@<TRIPOS>MOLECULE
*****
 34 37 0 0 0
SMALL
GASTEIGER

@<TRIPOS>ATOM
      1 C         142.2329  141.2516  165.0637 C.ar    1  UNL1        0.0305
      2 C         142.5469  141.2869  166.5300 C.ar    1  UNL1        0.0049
      3 C         141.7044  140.5083  167.4964 C.ar    1  UNL1        0.0536
      4 C         140.5478  139.6945  166.9964 C.ar    1  UNL1        0.0107
      5 C         140.2338  139.6591  165.5301 C.ar    1  UNL1        0.0735
      6 C         139.0772  138.8452  165.0302 C.ar    1  UNL1        0.2030
      7 O         138.2347  138.0667  165.9966 O.2     1  UNL1       -0.2863
      8 C         138.7632  138.8099  163.5639 C.ar    1  UNL1        0.0955
      9 C         139.6057  139.5885  162.5975 C.ar    1  UNL1        0.2024
     10 O         140.7623  140.4024  163.0974 O.2     1  UNL1       -0.4400
     11 C         141.0763  140.4377  164.5638 C.ar    1  UNL1        0.1474
     12 N         139.2917  139.5531  161.1312 N.pl3   1  UNL1       -0.2742
     13 C         138.2399  140.4619  160.5673 C.3     1  UNL1        0.1257
     14 C         137.9258  140.4265  159.1009 C.3     1  UNL1        0.1637
     15 O         138.6636  139.4824  158.1985 O.3     1  UNL1       -0.3501
     16 C         139.7154  138.5737  158.7623 C.3     1  UNL1        0.1637
     17 C         140.0294  138.6090  160.2286 C.3     1  UNL1        0.1257
     18 C         142.0184  140.5436  168.9627 C.2     1  UNL1        0.2491
     19 O         142.9529  139.5303  169.5542 O.2     1  UNL1       -0.2699
     20 N         141.3980  141.5923  169.8376 N.am    1  UNL1       -0.2726
     21 C         141.7119  141.6276  171.3039 C.3     1  UNL1        0.1152
     22 C         140.4634  142.6057  169.2460 C.3     1  UNL1        0.1152
     23 C         144.0642  141.3186  163.2220 C.3     1  UNL1        0.0264
     24 C         143.0754  142.0301  164.0972 C.3     1  UNL1        0.0984
     25 N         142.9292  143.5202  164.0060 N.pl3   1  UNL1       -0.3034
     26 C         144.0754  144.4108  164.3840 C.3     1  UNL1        0.1124
     27 C         141.6367  144.1196  163.5368 C.ar    1  UNL1        0.0526
     28 C         140.4543  144.1686  164.4585 C.ar    1  UNL1        0.0443
     29 C         139.1618  144.7679  163.9894 C.ar    1  UNL1        0.1436
     30 F         137.9795  144.8169  164.9112 F       1  UNL1       -0.2041
     31 C         139.0517  145.3184  162.5984 C.ar    1  UNL1        0.0593
     32 C         140.2340  145.2695  161.6766 C.ar    1  UNL1        0.1436
     33 F         140.1238  145.8200  160.2856 F       1  UNL1       -0.2041
     34 C         141.5265  144.6701  162.1458 C.ar    1  UNL1        0.0443
@<TRIPOS>BOND
     1    24    23    1
     2    24     1    1
     3     1     2   ar
     4     2     3   ar
     5     3    18    1
     6    18    19    2
     7    18    20   am
     8    20    21    1
     9    20    22    1
    10     3     4   ar
    11     4     5   ar
    12     5     6   ar
    13     6     7    2
    14     6     8   ar
    15     8     9   ar
    16     9    12    1
    17    12    13    1
    18    13    14    1
    19    14    15    1
    20    15    16    1
    21    16    17    1
    22     9    10   ar
    23    10    11   ar
    24    24    25    1
    25    25    26    1
    26    25    27    1
    27    27    28   ar
    28    28    29   ar
    29    29    30    1
    30    29    31   ar
    31    31    32   ar
    32    32    33    1
    33    32    34   ar
    34    11     1   ar
    35    34    27   ar
    36    11     5   ar
    37    17    12    1
@<TRIPOS>MOLECULE
*****
 34 37 0 0 0
SMALL
GASTEIGER

@<TRIPOS>ATOM
      1 C         140.8113  142.3731  165.3908 C.ar    1  UNL1        0.0305
      2 C         140.9696  142.5110  166.8760 C.ar    1  UNL1        0.0049
      3 C         140.3831  141.4780  167.7918 C.ar    1  UNL1        0.0536
      4 C         139.6384  140.3070  167.2225 C.ar    1  UNL1        0.0107
      5 C         139.4801  140.1691  165.7373 C.ar    1  UNL1        0.0735
      6 C         138.7353  138.9982  165.1679 C.ar    1  UNL1        0.2030
      7 O         138.1488  137.9651  166.0838 O.2     1  UNL1       -0.2863
      8 C         138.5770  138.8603  163.6827 C.ar    1  UNL1        0.0955
      9 C         139.1635  139.8934  162.7668 C.ar    1  UNL1        0.2024
     10 O         139.9082  141.0643  163.3361 O.2     1  UNL1       -0.4400
     11 C         140.0665  141.2022  164.8214 C.ar    1  UNL1        0.1474
     12 N         139.0052  139.7555  161.2816 N.pl3   1  UNL1       -0.2742
     13 C         139.7725  138.7012  160.5402 C.3     1  UNL1        0.1257
     14 C         139.6142  138.5633  159.0549 C.3     1  UNL1        0.1637
     15 O         138.6885  139.4797  158.3111 O.3     1  UNL1       -0.3501
     16 C         137.9211  140.5340  159.0525 C.3     1  UNL1        0.1637
     17 C         138.0795  140.6719  160.5377 C.3     1  UNL1        0.1257
     18 C         140.5414  141.6158  169.2771 C.2     1  UNL1        0.2491
     19 O         139.5779  142.4585  170.0591 O.2     1  UNL1       -0.2699
     20 N         141.6633  140.9110  169.9804 N.am    1  UNL1       -0.2726
     21 C         141.8216  141.0489  171.4656 C.3     1  UNL1        0.1152
     22 C         142.6269  140.0683  169.1984 C.3     1  UNL1        0.1152
     23 C         140.5579  144.5579  164.0078 C.3     1  UNL1        0.0264
     24 C         141.3978  143.4062  164.4749 C.3     1  UNL1        0.0984
     25 N         142.8241  143.2876  164.0261 N.pl3   1  UNL1       -0.3034
     26 C         143.7160  144.4936  164.0350 C.3     1  UNL1        0.1124
     27 C         143.3586  141.9628  163.5683 C.ar    1  UNL1        0.0526
     28 C         143.0856  141.4857  162.1726 C.ar    1  UNL1        0.0443
     29 C         143.6201  140.1611  161.7148 C.ar    1  UNL1        0.1436
     30 F         143.3470  139.6840  160.3192 F       1  UNL1       -0.2041
     31 C         144.4276  139.3136  162.6527 C.ar    1  UNL1        0.0593
     32 C         144.7006  139.7907  164.0483 C.ar    1  UNL1        0.1436
     33 F         145.5082  138.9431  164.9861 F       1  UNL1       -0.2041
     34 C         144.1662  141.1153  164.5061 C.ar    1  UNL1        0.0443
@<TRIPOS>BOND
     1    24    23    1
     2    24     1    1
     3     1     2   ar
     4     2     3   ar
     5     3    18    1
     6    18    19    2
     7    18    20   am
     8    20    21    1
     9    20    22    1
    10     3     4   ar
    11     4     5   ar
    12     5     6   ar
    13     6     7    2
    14     6     8   ar
    15     8     9   ar
    16     9    12    1
    17    12    13    1
    18    13    14    1
    19    14    15    1
    20    15    16    1
    21    16    17    1
    22     9    10   ar
    23    10    11   ar
    24    24    25    1
    25    25    26    1
    26    25    27    1
    27    27    28   ar
    28    28    29   ar
    29    29    30    1
    30    29    31   ar
    31    31    32   ar
    32    32    33    1
    33    32    34   ar
    34    11     1   ar
    35    34    27   ar
    36    11     5   ar
    37    17    12    1
@<TRIPOS>MOLECULE
*****
 34 37 0 0 0
SMALL
GASTEIGER

@<TRIPOS>ATOM
      1 C         142.3381  140.8226  164.9756 C.ar    1  UNL1        0.0305
      2 C         141.9916  140.4414  166.3843 C.ar    1  UNL1        0.0049
      3 C         140.9988  141.2561  167.1591 C.ar    1  UNL1        0.0536
      4 C         140.3525  142.4522  166.5253 C.ar    1  UNL1        0.0107
      5 C         140.6990  142.8334  165.1165 C.ar    1  UNL1        0.0735
      6 C         140.0528  144.0295  164.4827 C.ar    1  UNL1        0.2030
      7 O         139.0600  144.8443  165.2575 O.2     1  UNL1       -0.2863
      8 C         140.3993  144.4107  163.0740 C.ar    1  UNL1        0.0955
      9 C         141.3921  143.5959  162.2990 C.ar    1  UNL1        0.2024
     10 O         142.0384  142.3999  162.9329 O.2     1  UNL1       -0.4400
     11 C         141.6918  142.0187  164.3417 C.ar    1  UNL1        0.1474
     12 N         141.7386  143.9772  160.8903 N.pl3   1  UNL1       -0.2742
     13 C         141.0642  145.1505  160.2434 C.3     1  UNL1        0.1257
     14 C         141.4108  145.5317  158.8346 C.3     1  UNL1        0.1637
     15 O         142.4317  144.7397  158.0728 O.3     1  UNL1       -0.3501
     16 C         143.1061  143.5664  158.7198 C.3     1  UNL1        0.1637
     17 C         142.7596  143.1851  160.1285 C.3     1  UNL1        0.1257
     18 C         140.6522  140.8749  168.5679 C.2     1  UNL1        0.2491
     19 O         139.5924  139.8457  168.8273 O.2     1  UNL1       -0.2699
     20 N         141.3656  141.5230  169.7173 N.am    1  UNL1       -0.2726
     21 C         141.0191  141.1418  171.1261 C.3     1  UNL1        0.1152
     22 C         142.4255  142.5522  169.4580 C.3     1  UNL1        0.1152
     23 C         144.8002  140.1831  164.4470 C.3     1  UNL1        0.0264
     24 C         143.3310  140.0078  164.2007 C.3     1  UNL1        0.0984
     25 N         142.8546  139.0178  163.1795 N.pl3   1  UNL1       -0.3034
     26 C         143.8370  138.3633  162.2540 C.3     1  UNL1        0.1124
     27 C         141.3957  138.6821  163.0838 C.ar    1  UNL1        0.0526
     28 C         140.6216  139.0461  161.8516 C.ar    1  UNL1        0.0443
     29 C         139.1628  138.7105  161.7558 C.ar    1  UNL1        0.1436
     30 F         138.3888  139.0744  160.5236 F       1  UNL1       -0.2041
     31 C         138.4781  138.0109  162.8923 C.ar    1  UNL1        0.0593
     32 C         139.2521  137.6469  164.1246 C.ar    1  UNL1        0.1436
     33 F         138.5673  136.9473  165.2611 F       1  UNL1       -0.2041
     34 C         140.7109  137.9825  164.2203 C.ar    1  UNL1        0.0443
@<TRIPOS>BOND
     1    24    23    1
     2    24     1    1
     3     1     2   ar
     4     2     3   ar
     5     3    18    1
     6    18    19    2
     7    18    20   am
     8    20    21    1
     9    20    22    1
    10     3     4   ar
    11     4     5   ar
    12     5     6   ar
    13     6     7    2
    14     6     8   ar
    15     8     9   ar
    16     9    12    1
    17    12    13    1
    18    13    14    1
    19    14    15    1
    20    15    16    1
    21    16    17    1
    22     9    10   ar
    23    10    11   ar
    24    24    25    1
    25    25    26    1
    26    25    27    1
    27    27    28   ar
    28    28    29   ar
    29    29    30    1
    30    29    31   ar
    31    31    32   ar
    32    32    33    1
    33    32    34   ar
    34    11     1   ar
    35    34    27   ar
    36    11     5   ar
    37    17    12    1
@<TRIPOS>MOLECULE
*****
 34 37 0 0 0
SMALL
GASTEIGER

@<TRIPOS>ATOM
      1 C         142.4397  141.6168  163.7705 C.ar    1  UNL1        0.0305
      2 C         142.3423  142.1021  162.3545 C.ar    1  UNL1        0.0049
      3 C         141.3706  143.1880  161.9991 C.ar    1  UNL1        0.0536
      4 C         140.4962  143.7887  163.0595 C.ar    1  UNL1        0.0107
      5 C         140.5936  143.3035  164.4755 C.ar    1  UNL1        0.0735
      6 C         139.7192  143.9042  165.5360 C.ar    1  UNL1        0.2030
      7 O         138.7474  144.9901  165.1805 O.2     1  UNL1       -0.2863
      8 C         139.8165  143.4189  166.9519 C.ar    1  UNL1        0.0955
      9 C         140.7883  142.3329  167.3075 C.ar    1  UNL1        0.2024
     10 O         141.6627  141.7322  166.2470 O.2     1  UNL1       -0.4400
     11 C         141.5653  142.2175  164.8310 C.ar    1  UNL1        0.1474
     12 N         140.8856  141.8476  168.7235 N.pl3   1  UNL1       -0.2742
     13 C         140.0666  140.6738  169.1720 C.3     1  UNL1        0.1257
     14 C         140.1639  140.1885  170.5880 C.3     1  UNL1        0.1637
     15 O         141.0803  140.8771  171.5555 O.3     1  UNL1       -0.3501
     16 C         141.8994  142.0510  171.1070 C.3     1  UNL1        0.1637
     17 C         141.8020  142.5363  169.6910 C.3     1  UNL1        0.1257
     18 C         141.2732  143.6733  160.5830 C.2     1  UNL1        0.2491
     19 O         142.1360  144.8090  160.1184 O.2     1  UNL1       -0.2699
     20 N         140.3131  143.0230  159.6317 N.am    1  UNL1       -0.2726
     21 C         140.2156  143.5082  158.2157 C.3     1  UNL1        0.1152
     22 C         139.4502  141.8873  160.0964 C.3     1  UNL1        0.1152
     23 C         144.8815  140.7409  163.9141 C.3     1  UNL1        0.0264
     24 C         143.4114  140.5308  164.1261 C.3     1  UNL1        0.0984
     25 N         142.9132  139.2348  164.6936 N.pl3   1  UNL1       -0.3034
     26 C         143.7294  138.5005  165.7155 C.3     1  UNL1        0.1124
     27 C         141.5986  138.6731  164.2390 C.ar    1  UNL1        0.0526
     28 C         141.3221  138.5022  162.7747 C.ar    1  UNL1        0.0443
     29 C         140.0077  137.9406  162.3202 C.ar    1  UNL1        0.1436
     30 F         139.7312  137.7697  160.8558 F       1  UNL1       -0.2041
     31 C         138.9697  137.5498  163.3300 C.ar    1  UNL1        0.0593
     32 C         139.2461  137.7207  164.7944 C.ar    1  UNL1        0.1436
     33 F         138.2080  137.3299  165.8042 F       1  UNL1       -0.2041
     34 C         140.5606  138.2824  165.2489 C.ar    1  UNL1        0.0443
@<TRIPOS>BOND
     1    24    23    1
     2    24     1    1
     3     1     2   ar
     4     2     3   ar
     5     3    18    1
     6    18    19    2
     7    18    20   am
     8    20    21    1
     9    20    22    1
    10     3     4   ar
    11     4     5   ar
    12     5     6   ar
    13     6     7    2
    14     6     8   ar
    15     8     9   ar
    16     9    12    1
    17    12    13    1
    18    13    14    1
    19    14    15    1
    20    15    16    1
    21    16    17    1
    22     9    10   ar
    23    10    11   ar
    24    24    25    1
    25    25    26    1
    26    25    27    1
    27    27    28   ar
    28    28    29   ar
    29    29    30    1
    30    29    31   ar
    31    31    32   ar
    32    32    33    1
    33    32    34   ar
    34    11     1   ar
    35    34    27   ar
    36    11     5   ar
    37    17    12    1
