@<TRIPOS>MOLECULE
*****
 37 40 0 0 0
SMALL
GASTEIGER

@<TRIPOS>ATOM
      1 N         140.0544  141.0378  157.7528 N.am    1  UNL1       -0.3018
      2 C         138.6414  141.1615  158.2407 C.2     1  UNL1        0.2426
      3 O         137.7662  139.9458  158.3200 O.2     1  UNL1       -0.2733
      4 H         140.6288  141.8357  157.7007 H       1  UNL1        0.1495
      5 N         141.3529  137.8045  156.7663 N.3     1  UNL1       -0.2711
      6 C         141.1424  139.1189  156.0747 C.3     1  UNL1        0.0933
      7 C         140.5923  139.6986  157.3441 C.3     1  UNL1        0.1035
      8 C         140.8028  138.3843  158.0357 C.3     1  UNL1        0.0933
      9 C         142.9666  133.7867  155.5404 C.3     1  UNL1        0.0240
     10 C         141.6276  134.2414  155.0403 C.3     1  UNL1        0.0058
     11 C         141.0897  135.5807  155.4490 C.3     1  UNL1        0.0163
     12 C         141.8908  136.4652  156.3576 C.3     1  UNL1        0.0576
     13 C         143.2299  136.0105  156.8577 C.3     1  UNL1        0.0163
     14 C         143.7678  134.6712  156.4490 C.3     1  UNL1        0.0058
     15 C         144.5803  129.7688  154.3145 C.ar    1  UNL1        0.2250
     16 C         144.9935  130.3756  155.6225 C.ar    1  UNL1        0.0574
     17 C         144.4556  131.7149  156.0312 C.ar    1  UNL1        0.0020
     18 C         143.5045  132.4474  155.1318 C.ar    1  UNL1       -0.0031
     19 C         143.0913  131.8405  153.8237 C.ar    1  UNL1        0.0977
     20 N         143.6292  130.5012  153.4151 N.ar    1  UNL1       -0.2105
     21 C         145.5619  127.4490  154.9506 C.3     1  UNL1        0.2542
     22 O         145.1182  128.4295  153.9059 O.3     1  UNL1       -0.4561
     23 C         138.1035  142.5008  158.6493 C.3     1  UNL1        0.1759
     24 N         138.5836  143.1475  159.9148 N.am    1  UNL1       -0.2931
     25 C         138.2141  142.5595  161.2444 C.2     1  UNL1        0.2462
     26 O         137.3645  141.3249  161.3085 O.2     1  UNL1       -0.2701
     27 H         139.1411  143.9578  159.8727 H       1  UNL1        0.1502
     28 C         138.6941  143.2062  162.5098 C.ar    1  UNL1        0.0533
     29 C         137.7351  143.4529  163.6366 C.ar    1  UNL1        0.0045
     30 C         138.2151  144.0995  164.9020 C.ar    1  UNL1        0.0001
     31 C         139.6541  144.4995  165.0408 C.ar    1  UNL1        0.0039
     32 C         140.6131  144.2528  163.9141 C.ar    1  UNL1        0.0716
     33 C         140.1331  143.6061  162.6486 C.ar    1  UNL1        0.0084
     34 C         142.0521  144.6528  164.0529 C.3     1  UNL1        0.4186
     35 F         143.4912  145.0527  164.1917 F       1  UNL1       -0.1659
     36 F         142.3299  143.3898  164.8130 F       1  UNL1       -0.1659
     37 F         141.7744  145.9157  163.2928 F       1  UNL1       -0.1659
@<TRIPOS>BOND
     1    21    22    1
     2    22    15    1
     3    15    16   ar
     4    16    17   ar
     5    17    18   ar
     6     9    18    1
     7     9    10    1
     8    10    11    1
     9    11    12    1
    10    12     5    1
    11     5     6    1
    12     6     7    1
    13     7     1    1
    14     1     2   am
    15     2     3    2
    16     2    23    1
    17    23    24    1
    18    24    25   am
    19    25    26    2
    20    25    28    1
    21    28    29   ar
    22    29    30   ar
    23    30    31   ar
    24    31    32   ar
    25    32    34    1
    26    34    35    1
    27    34    36    1
    28    34    37    1
    29    32    33   ar
    30     7     8    1
    31    12    13    1
    32    13    14    1
    33    18    19   ar
    34    19    20   ar
    35    20    15   ar
    36    14     9    1
    37     8     5    1
    38    33    28   ar
    39     1     4    1
    40    24    27    1
@<TRIPOS>MOLECULE
*****
 37 40 0 0 0
SMALL
GASTEIGER

@<TRIPOS>ATOM
      1 N         142.5256  137.2580  157.4241 N.am    1  UNL1       -0.3018
      2 C         143.3407  138.1408  156.5262 C.2     1  UNL1        0.2426
      3 O         143.9887  139.3766  157.0767 O.2     1  UNL1       -0.2733
      4 H         142.1002  136.4469  157.0627 H       1  UNL1        0.1495
      5 N         142.1224  138.1096  160.9206 N.3     1  UNL1       -0.2711
      6 C         143.1110  137.3021  160.1328 C.3     1  UNL1        0.0933
      7 C         142.3586  137.6107  158.8724 C.3     1  UNL1        0.1035
      8 C         141.3699  138.4182  159.6601 C.3     1  UNL1        0.0933
      9 C         141.6213  139.1680  165.2656 C.3     1  UNL1        0.0240
     10 C         141.1360  137.8435  164.7555 C.3     1  UNL1        0.0058
     11 C         141.3030  137.4907  163.3071 C.3     1  UNL1        0.0163
     12 C         141.9554  138.4624  162.3689 C.3     1  UNL1        0.0576
     13 C         142.4407  139.7868  162.8791 C.3     1  UNL1        0.0163
     14 C         142.2737  140.1396  164.3274 C.3     1  UNL1        0.0058
     15 C         141.1203  140.2263  169.6106 C.ar    1  UNL1        0.2250
     16 C         139.9347  140.2476  168.6919 C.ar    1  UNL1        0.0574
     17 C         140.1017  139.8948  167.2436 C.ar    1  UNL1        0.0020
     18 C         141.4543  139.5207  166.7139 C.ar    1  UNL1       -0.0031
     19 C         142.6398  139.4994  167.6326 C.ar    1  UNL1        0.0977
     20 N         142.4728  139.8522  169.0809 N.ar    1  UNL1       -0.2105
     21 C         140.8640  142.0174  171.4750 C.3     1  UNL1        0.2542
     22 O         140.9533  140.5791  171.0589 O.3     1  UNL1       -0.4561
     23 C         143.5077  137.7881  155.0779 C.3     1  UNL1        0.1759
     24 N         143.6613  136.3532  154.6684 N.am    1  UNL1       -0.2931
     25 C         142.4649  135.4487  154.6417 C.2     1  UNL1        0.2462
     26 O         141.1150  135.9791  155.0246 O.2     1  UNL1       -0.2701
     27 H         144.5472  136.0051  154.4171 H       1  UNL1        0.1502
     28 C         142.6185  134.0139  154.2322 C.ar    1  UNL1        0.0533
     29 C         142.0563  133.5432  152.9235 C.ar    1  UNL1        0.0045
     30 C         142.2098  132.1084  152.5140 C.ar    1  UNL1        0.0001
     31 C         142.9255  131.1443  153.4131 C.ar    1  UNL1        0.0039
     32 C         143.4877  131.6149  154.7216 C.ar    1  UNL1        0.0716
     33 C         143.3341  133.0498  155.1312 C.ar    1  UNL1        0.0084
     34 C         144.2033  130.6508  155.6207 C.3     1  UNL1        0.4186
     35 F         144.9190  129.6867  156.5198 F       1  UNL1       -0.1659
     36 F         143.1460  129.6201  155.3570 F       1  UNL1       -0.1659
     37 F         145.2607  131.6816  155.8844 F       1  UNL1       -0.1659
@<TRIPOS>BOND
     1    21    22    1
     2    22    15    1
     3    15    16   ar
     4    16    17   ar
     5    17    18   ar
     6     9    18    1
     7     9    10    1
     8    10    11    1
     9    11    12    1
    10    12     5    1
    11     5     6    1
    12     6     7    1
    13     7     1    1
    14     1     2   am
    15     2     3    2
    16     2    23    1
    17    23    24    1
    18    24    25   am
    19    25    26    2
    20    25    28    1
    21    28    29   ar
    22    29    30   ar
    23    30    31   ar
    24    31    32   ar
    25    32    34    1
    26    34    35    1
    27    34    36    1
    28    34    37    1
    29    32    33   ar
    30     7     8    1
    31    12    13    1
    32    13    14    1
    33    18    19   ar
    34    19    20   ar
    35    20    15   ar
    36    14     9    1
    37     8     5    1
    38    33    28   ar
    39     1     4    1
    40    24    27    1
@<TRIPOS>MOLECULE
*****
 37 40 0 0 0
SMALL
GASTEIGER

@<TRIPOS>ATOM
      1 N         140.2699  140.8428  157.5399 N.am    1  UNL1       -0.3018
      2 C         138.7997  141.1307  157.6141 C.2     1  UNL1        0.2426
      3 O         137.8072  140.0546  157.2869 O.2     1  UNL1       -0.2733
      4 H         140.9212  141.5492  157.7546 H       1  UNL1        0.1495
      5 N         141.4235  137.5499  156.5708 N.3     1  UNL1       -0.2711
      6 C         141.7798  138.9548  156.1844 C.3     1  UNL1        0.0933
      7 C         140.7477  139.4788  157.1385 C.3     1  UNL1        0.1035
      8 C         140.3915  138.0740  157.5249 C.3     1  UNL1        0.0933
      9 C         142.8571  133.4578  155.3665 C.3     1  UNL1        0.0240
     10 C         141.5832  134.0048  154.7940 C.3     1  UNL1        0.0058
     11 C         141.1053  135.3688  155.1954 C.3     1  UNL1        0.0163
     12 C         141.9014  136.1859  156.1694 C.3     1  UNL1        0.0576
     13 C         143.1753  135.6389  156.7419 C.3     1  UNL1        0.0163
     14 C         143.6532  134.2749  156.3405 C.3     1  UNL1        0.0058
     15 C         144.2907  129.3658  154.1623 C.ar    1  UNL1        0.2250
     16 C         144.8902  130.0496  155.3552 C.ar    1  UNL1        0.0574
     17 C         144.4123  131.4136  155.7566 C.ar    1  UNL1        0.0020
     18 C         143.3349  132.0938  154.9651 C.ar    1  UNL1       -0.0031
     19 C         142.7354  131.4101  153.7722 C.ar    1  UNL1        0.0977
     20 N         143.2133  130.0461  153.3708 N.ar    1  UNL1       -0.2105
     21 C         145.6820  127.8441  152.5816 C.3     1  UNL1        0.2542
     22 O         144.7685  128.0018  153.7609 O.3     1  UNL1       -0.4561
     23 C         138.3218  142.4947  158.0155 C.3     1  UNL1        0.1759
     24 N         138.5719  142.9978  159.4064 N.am    1  UNL1       -0.2931
     25 C         139.9311  143.5051  159.7874 C.2     1  UNL1        0.2462
     26 O         141.0402  143.5094  158.7775 O.2     1  UNL1       -0.2701
     27 H         137.8439  142.9949  160.0692 H       1  UNL1        0.1502
     28 C         140.1811  144.0081  161.1782 C.ar    1  UNL1        0.0533
     29 C         141.5506  144.4776  161.5711 C.ar    1  UNL1        0.0045
     30 C         141.8007  144.9806  162.9619 C.ar    1  UNL1        0.0001
     31 C         140.6814  145.0142  163.9599 C.ar    1  UNL1        0.0039
     32 C         139.3120  144.5448  163.5671 C.ar    1  UNL1        0.0716
     33 C         139.0618  144.0418  162.1762 C.ar    1  UNL1        0.0084
     34 C         138.1926  144.5785  164.5651 C.3     1  UNL1        0.4186
     35 F         137.0733  144.6121  165.5631 F       1  UNL1       -0.1659
     36 F         139.1708  144.9171  165.6507 F       1  UNL1       -0.1659
     37 F         137.2145  144.2398  163.4794 F       1  UNL1       -0.1659
@<TRIPOS>BOND
     1    21    22    1
     2    22    15    1
     3    15    16   ar
     4    16    17   ar
     5    17    18   ar
     6     9    18    1
     7     9    10    1
     8    10    11    1
     9    11    12    1
    10    12     5    1
    11     5     6    1
    12     6     7    1
    13     7     1    1
    14     1     2   am
    15     2     3    2
    16     2    23    1
    17    23    24    1
    18    24    25   am
    19    25    26    2
    20    25    28    1
    21    28    29   ar
    22    29    30   ar
    23    30    31   ar
    24    31    32   ar
    25    32    34    1
    26    34    35    1
    27    34    36    1
    28    34    37    1
    29    32    33   ar
    30     7     8    1
    31    12    13    1
    32    13    14    1
    33    18    19   ar
    34    19    20   ar
    35    20    15   ar
    36    14     9    1
    37     8     5    1
    38    33    28   ar
    39     1     4    1
    40    24    27    1
@<TRIPOS>MOLECULE
*****
 37 40 0 0 0
SMALL
GASTEIGER

@<TRIPOS>ATOM
      1 N         140.9852  143.2008  160.6258 N.am    1  UNL1       -0.3018
      2 C         139.7992  142.2843  160.5683 C.2     1  UNL1        0.2426
      3 O         139.7773  141.1463  159.5913 O.2     1  UNL1       -0.2733
      4 H         140.9996  143.9477  161.2670 H       1  UNL1        0.1495
      5 N         143.7959  142.6662  158.4058 N.3     1  UNL1       -0.2711
      6 C         143.1992  141.9179  159.5609 C.3     1  UNL1        0.0933
      7 C         142.1494  142.9794  159.7062 C.3     1  UNL1        0.1035
      8 C         142.7460  143.7277  158.5512 C.3     1  UNL1        0.0933
      9 C         147.2885  142.0018  155.6471 C.3     1  UNL1        0.0240
     10 C         147.4977  142.6666  156.9753 C.3     1  UNL1        0.0058
     11 C         146.3335  142.8881  157.8949 C.3     1  UNL1        0.0163
     12 C         144.9601  142.4447  157.4862 C.3     1  UNL1        0.0576
     13 C         144.7508  141.7799  156.1580 C.3     1  UNL1        0.0163
     14 C         145.9150  141.5584  155.2385 C.3     1  UNL1        0.0058
     15 C         150.7811  141.3374  152.8885 C.ar    1  UNL1        0.2250
     16 C         149.3902  141.4148  152.3323 C.ar    1  UNL1        0.0574
     17 C         148.2260  141.6362  153.2519 C.ar    1  UNL1        0.0020
     18 C         148.4527  141.7803  154.7276 C.ar    1  UNL1       -0.0031
     19 C         149.8436  141.7030  155.2837 C.ar    1  UNL1        0.0977
     20 N         151.0078  141.4816  154.3642 N.ar    1  UNL1       -0.2105
     21 C         152.9685  140.0683  152.2933 C.3     1  UNL1        0.2542
     22 O         151.9453  141.1160  151.9689 O.3     1  UNL1       -0.4561
     23 C         138.6350  142.5058  161.4879 C.3     1  UNL1        0.1759
     24 N         138.5677  141.7825  162.8003 N.am    1  UNL1       -0.2931
     25 C         139.5201  142.1394  163.9029 C.2     1  UNL1        0.2462
     26 O         140.5397  143.2194  163.6931 O.2     1  UNL1       -0.2701
     27 H         137.8986  141.0737  162.9381 H       1  UNL1        0.1502
     28 C         139.4529  141.4162  165.2153 C.ar    1  UNL1        0.0533
     29 C         140.1274  141.9927  166.4248 C.ar    1  UNL1        0.0045
     30 C         140.0602  141.2696  167.7372 C.ar    1  UNL1        0.0001
     31 C         139.3185  139.9698  167.8403 C.ar    1  UNL1        0.0039
     32 C         138.6440  139.3933  166.6309 C.ar    1  UNL1        0.0716
     33 C         138.7112  140.1165  165.3184 C.ar    1  UNL1        0.0084
     34 C         137.9023  138.0936  166.7339 C.3     1  UNL1        0.4186
     35 F         137.1606  136.7939  166.8370 F       1  UNL1       -0.1659
     36 F         138.5411  137.6280  165.4591 F       1  UNL1       -0.1659
     37 F         137.2635  138.5592  168.0088 F       1  UNL1       -0.1659
@<TRIPOS>BOND
     1    21    22    1
     2    22    15    1
     3    15    16   ar
     4    16    17   ar
     5    17    18   ar
     6     9    18    1
     7     9    10    1
     8    10    11    1
     9    11    12    1
    10    12     5    1
    11     5     6    1
    12     6     7    1
    13     7     1    1
    14     1     2   am
    15     2     3    2
    16     2    23    1
    17    23    24    1
    18    24    25   am
    19    25    26    2
    20    25    28    1
    21    28    29   ar
    22    29    30   ar
    23    30    31   ar
    24    31    32   ar
    25    32    34    1
    26    34    35    1
    27    34    36    1
    28    34    37    1
    29    32    33   ar
    30     7     8    1
    31    12    13    1
    32    13    14    1
    33    18    19   ar
    34    19    20   ar
    35    20    15   ar
    36    14     9    1
    37     8     5    1
    38    33    28   ar
    39     1     4    1
    40    24    27    1
@<TRIPOS>MOLECULE
*****
 37 40 0 0 0
SMALL
GASTEIGER

@<TRIPOS>ATOM
      1 N         140.3868  142.1546  161.3804 N.am    1  UNL1       -0.3018
      2 C         141.5467  142.9835  161.8465 C.2     1  UNL1        0.2426
      3 O         142.9263  142.7009  161.3295 O.2     1  UNL1       -0.2733
      4 H         139.4814  142.3400  161.7196 H       1  UNL1        0.1495
      5 N         140.9165  139.4712  159.0071 N.3     1  UNL1       -0.2711
      6 C         141.1503  140.9529  159.0024 C.3     1  UNL1        0.0933
      7 C         140.6062  141.0431  160.3973 C.3     1  UNL1        0.1035
      8 C         140.3725  139.5614  160.4021 C.3     1  UNL1        0.0933
      9 C         141.5749  136.1366  156.0579 C.3     1  UNL1        0.0240
     10 C         140.2634  136.8640  156.0871 C.3     1  UNL1        0.0058
     11 C         140.0440  137.9755  157.0702 C.3     1  UNL1        0.0163
     12 C         141.1360  138.3597  158.0240 C.3     1  UNL1        0.0576
     13 C         142.4475  137.6323  157.9948 C.3     1  UNL1        0.0163
     14 C         142.6669  136.5208  157.0117 C.3     1  UNL1        0.0058
     15 C         142.2332  132.8021  153.1088 C.ar    1  UNL1        0.2250
     16 C         142.3635  132.5390  154.5797 C.ar    1  UNL1        0.0574
     17 C         142.1440  133.6505  155.5628 C.ar    1  UNL1        0.0020
     18 C         141.7943  135.0251  155.0749 C.ar    1  UNL1       -0.0031
     19 C         141.6641  135.2882  153.6039 C.ar    1  UNL1        0.0977
     20 N         141.8836  134.1767  152.6209 N.ar    1  UNL1       -0.2105
     21 C         142.3754  130.2627  152.5786 C.3     1  UNL1        0.2542
     22 O         142.4527  131.6906  152.1257 O.3     1  UNL1       -0.4561
     23 C         141.3273  144.0950  162.8295 C.3     1  UNL1        0.1759
     24 N         141.7452  143.9245  164.2600 N.am    1  UNL1       -0.2931
     25 C         141.0716  142.8971  165.1208 C.2     1  UNL1        0.2462
     26 O         139.9801  142.0404  164.5510 O.2     1  UNL1       -0.2701
     27 H         142.4616  144.4868  164.6340 H       1  UNL1        0.1502
     28 C         141.4895  142.7266  166.5512 C.ar    1  UNL1        0.0533
     29 C         142.8754  142.2536  166.8765 C.ar    1  UNL1        0.0045
     30 C         143.2932  142.0830  168.3069 C.ar    1  UNL1        0.0001
     31 C         142.3253  142.3854  169.4122 C.ar    1  UNL1        0.0039
     32 C         140.9395  142.8583  169.0870 C.ar    1  UNL1        0.0716
     33 C         140.5215  143.0289  167.6565 C.ar    1  UNL1        0.0084
     34 C         139.9715  143.1607  170.1923 C.3     1  UNL1        0.4186
     35 F         139.0036  143.4631  171.2976 F       1  UNL1       -0.1659
     36 F         139.5566  141.7195  170.2232 F       1  UNL1       -0.1659
     37 F         140.3864  144.6018  170.1614 F       1  UNL1       -0.1659
@<TRIPOS>BOND
     1    21    22    1
     2    22    15    1
     3    15    16   ar
     4    16    17   ar
     5    17    18   ar
     6     9    18    1
     7     9    10    1
     8    10    11    1
     9    11    12    1
    10    12     5    1
    11     5     6    1
    12     6     7    1
    13     7     1    1
    14     1     2   am
    15     2     3    2
    16     2    23    1
    17    23    24    1
    18    24    25   am
    19    25    26    2
    20    25    28    1
    21    28    29   ar
    22    29    30   ar
    23    30    31   ar
    24    31    32   ar
    25    32    34    1
    26    34    35    1
    27    34    36    1
    28    34    37    1
    29    32    33   ar
    30     7     8    1
    31    12    13    1
    32    13    14    1
    33    18    19   ar
    34    19    20   ar
    35    20    15   ar
    36    14     9    1
    37     8     5    1
    38    33    28   ar
    39     1     4    1
    40    24    27    1
@<TRIPOS>MOLECULE
*****
 37 40 0 0 0
SMALL
GASTEIGER

@<TRIPOS>ATOM
      1 N         137.1322  140.3404  157.5951 N.am    1  UNL1       -0.3018
      2 C         136.9732  141.6551  156.8906 C.2     1  UNL1        0.2426
      3 O         137.4686  142.9160  157.5348 O.2     1  UNL1       -0.2733
      4 H         136.8071  139.5129  157.1723 H       1  UNL1        0.1495
      5 N         138.7118  140.2103  160.8511 N.3     1  UNL1       -0.2711
      6 C         139.1436  140.6354  159.4789 C.3     1  UNL1        0.0933
      7 C         137.7865  140.2865  158.9438 C.3     1  UNL1        0.1035
      8 C         137.3545  139.8615  160.3159 C.3     1  UNL1        0.0933
      9 C         140.6746  140.0486  164.8972 C.3     1  UNL1        0.0240
     10 C         140.9128  138.9505  163.9036 C.3     1  UNL1        0.0058
     11 C         140.2586  139.0044  162.5549 C.3     1  UNL1        0.0163
     12 C         139.3661  140.1564  162.1998 C.3     1  UNL1        0.0576
     13 C         139.1278  141.2546  163.1934 C.3     1  UNL1        0.0163
     14 C         139.7821  141.2007  164.5421 C.3     1  UNL1        0.0058
     15 C         142.6375  139.8869  168.9433 C.ar    1  UNL1        0.2250
     16 C         141.5125  140.8470  168.6933 C.ar    1  UNL1        0.0574
     17 C         140.8582  140.9009  167.3446 C.ar    1  UNL1        0.0020
     18 C         141.3289  139.9947  166.2459 C.ar    1  UNL1       -0.0031
     19 C         142.4540  139.0347  166.4959 C.ar    1  UNL1        0.0977
     20 N         143.1083  138.9808  167.8446 N.ar    1  UNL1       -0.2105
     21 C         142.6613  140.5319  171.4600 C.3     1  UNL1        0.2542
     22 O         143.2918  139.8331  170.2920 O.3     1  UNL1       -0.4561
     23 C         136.3189  141.7090  155.5419 C.3     1  UNL1        0.1759
     24 N         134.8241  141.7751  155.4356 N.am    1  UNL1       -0.2931
     25 C         133.9847  140.6452  155.9540 C.2     1  UNL1        0.2462
     26 O         134.6401  139.4493  156.5787 O.2     1  UNL1       -0.2701
     27 H         134.3940  142.5600  155.0255 H       1  UNL1        0.1502
     28 C         132.4900  140.7113  155.8477 C.ar    1  UNL1        0.0533
     29 C         131.8434  141.7835  155.0216 C.ar    1  UNL1        0.0045
     30 C         130.3487  141.8495  154.9153 C.ar    1  UNL1        0.0001
     31 C         129.5004  140.8434  155.6351 C.ar    1  UNL1        0.0039
     32 C         130.1469  139.7712  156.4612 C.ar    1  UNL1        0.0716
     33 C         131.6417  139.7051  156.5675 C.ar    1  UNL1        0.0084
     34 C         129.2986  138.7651  157.1809 C.3     1  UNL1        0.4186
     35 F         128.4503  137.7589  157.9007 F       1  UNL1       -0.1659
     36 F         128.5876  139.8758  157.8957 F       1  UNL1       -0.1659
     37 F         130.0095  137.6543  156.4662 F       1  UNL1       -0.1659
@<TRIPOS>BOND
     1    21    22    1
     2    22    15    1
     3    15    16   ar
     4    16    17   ar
     5    17    18   ar
     6     9    18    1
     7     9    10    1
     8    10    11    1
     9    11    12    1
    10    12     5    1
    11     5     6    1
    12     6     7    1
    13     7     1    1
    14     1     2   am
    15     2     3    2
    16     2    23    1
    17    23    24    1
    18    24    25   am
    19    25    26    2
    20    25    28    1
    21    28    29   ar
    22    29    30   ar
    23    30    31   ar
    24    31    32   ar
    25    32    34    1
    26    34    35    1
    27    34    36    1
    28    34    37    1
    29    32    33   ar
    30     7     8    1
    31    12    13    1
    32    13    14    1
    33    18    19   ar
    34    19    20   ar
    35    20    15   ar
    36    14     9    1
    37     8     5    1
    38    33    28   ar
    39     1     4    1
    40    24    27    1
@<TRIPOS>MOLECULE
*****
 37 40 0 0 0
SMALL
GASTEIGER

@<TRIPOS>ATOM
      1 N         140.9395  140.5323  161.9694 N.am    1  UNL1       -0.3018
      2 C         140.7101  139.1261  162.4382 C.2     1  UNL1        0.2426
      3 O         141.5283  138.0036  161.8716 O.2     1  UNL1       -0.2733
      4 H         140.4026  141.2689  162.3412 H       1  UNL1        0.1495
      5 N         143.4685  141.2177  159.4697 N.3     1  UNL1       -0.2711
      6 C         143.4745  140.6397  160.8539 C.3     1  UNL1        0.0933
      7 C         141.9871  140.8162  160.9340 C.3     1  UNL1        0.1035
      8 C         141.9810  141.3942  159.5498 C.3     1  UNL1        0.0933
      9 C         146.6111  142.0694  156.3634 C.3     1  UNL1        0.0240
     10 C         146.5324  142.9125  157.6015 C.3     1  UNL1        0.0058
     11 C         145.4849  142.6286  158.6370 C.3     1  UNL1        0.0163
     12 C         144.5160  141.5016  158.4343 C.3     1  UNL1        0.0576
     13 C         144.5947  140.6585  157.1962 C.3     1  UNL1        0.0163
     14 C         145.6422  140.9424  156.1608 C.3     1  UNL1        0.0058
     15 C         149.7537  142.9211  153.2572 C.ar    1  UNL1        0.2250
     16 C         148.4466  143.6562  153.2229 C.ar    1  UNL1        0.0574
     17 C         147.3990  143.3722  154.2583 C.ar    1  UNL1        0.0020
     18 C         147.6586  142.3533  155.3280 C.ar    1  UNL1       -0.0031
     19 C         148.9657  141.6183  155.3623 C.ar    1  UNL1        0.0977
     20 N         150.0132  141.9022  154.3269 N.ar    1  UNL1       -0.2105
     21 C         151.9905  144.0500  152.5702 C.3     1  UNL1        0.2542
     22 O         150.8012  143.2050  152.2218 O.3     1  UNL1       -0.4561
     23 C         139.6626  138.8421  163.4736 C.3     1  UNL1        0.1759
     24 N         139.8472  139.3290  164.8804 N.am    1  UNL1       -0.2931
     25 C         139.7090  140.7896  165.1928 C.2     1  UNL1        0.2462
     26 O         139.3861  141.7633  164.0984 O.2     1  UNL1       -0.2701
     27 H         140.0591  138.6899  165.5987 H       1  UNL1        0.1502
     28 C         139.8936  141.2764  166.5995 C.ar    1  UNL1        0.0533
     29 C         140.3520  142.6821  166.8526 C.ar    1  UNL1        0.0045
     30 C         140.5366  143.1690  168.2593 C.ar    1  UNL1        0.0001
     31 C         140.2628  142.2502  169.4130 C.ar    1  UNL1        0.0039
     32 C         139.8044  140.8446  169.1599 C.ar    1  UNL1        0.0716
     33 C         139.6197  140.3577  167.7532 C.ar    1  UNL1        0.0084
     34 C         139.5305  139.9259  170.3136 C.3     1  UNL1        0.4186
     35 F         139.2567  139.0071  171.4672 F       1  UNL1       -0.1659
     36 F         140.9641  139.4845  170.3024 F       1  UNL1       -0.1659
     37 F         138.0970  140.3672  170.3248 F       1  UNL1       -0.1659
@<TRIPOS>BOND
     1    21    22    1
     2    22    15    1
     3    15    16   ar
     4    16    17   ar
     5    17    18   ar
     6     9    18    1
     7     9    10    1
     8    10    11    1
     9    11    12    1
    10    12     5    1
    11     5     6    1
    12     6     7    1
    13     7     1    1
    14     1     2   am
    15     2     3    2
    16     2    23    1
    17    23    24    1
    18    24    25   am
    19    25    26    2
    20    25    28    1
    21    28    29   ar
    22    29    30   ar
    23    30    31   ar
    24    31    32   ar
    25    32    34    1
    26    34    35    1
    27    34    36    1
    28    34    37    1
    29    32    33   ar
    30     7     8    1
    31    12    13    1
    32    13    14    1
    33    18    19   ar
    34    19    20   ar
    35    20    15   ar
    36    14     9    1
    37     8     5    1
    38    33    28   ar
    39     1     4    1
    40    24    27    1
@<TRIPOS>MOLECULE
*****
 37 40 0 0 0
SMALL
GASTEIGER

@<TRIPOS>ATOM
      1 N         143.6738  140.5559  157.9508 N.am    1  UNL1       -0.3018
      2 C         143.0260  141.7080  157.2416 C.2     1  UNL1        0.2426
      3 O         142.0569  141.4526  156.1255 O.2     1  UNL1       -0.2733
      4 H         144.3098  140.7236  158.6834 H       1  UNL1        0.1495
      5 N         142.8983  137.1578  156.9685 N.3     1  UNL1       -0.2711
      6 C         143.6498  138.2967  156.3454 C.3     1  UNL1        0.0933
      7 C         143.3526  139.1483  157.5439 C.3     1  UNL1        0.1035
      8 C         142.6011  138.0095  158.1670 C.3     1  UNL1        0.0933
      9 C         141.9346  132.9350  155.7478 C.3     1  UNL1        0.0240
     10 C         141.2113  134.0838  155.1098 C.3     1  UNL1        0.0058
     11 C         141.5325  135.4914  155.5167 C.3     1  UNL1        0.0163
     12 C         142.5771  135.7502  156.5616 C.3     1  UNL1        0.0576
     13 C         143.3005  134.6014  157.1995 C.3     1  UNL1        0.0163
     14 C         142.9792  133.1939  156.7926 C.3     1  UNL1        0.0058
     15 C         140.9710  128.7123  154.5270 C.ar    1  UNL1        0.2250
     16 C         140.0222  129.8249  154.1923 C.ar    1  UNL1        0.0574
     17 C         140.3434  131.2324  154.5992 C.ar    1  UNL1        0.0020
     18 C         141.6134  131.5275  155.3409 C.ar    1  UNL1       -0.0031
     19 C         142.5622  130.4150  155.6756 C.ar    1  UNL1        0.0977
     20 N         142.2410  129.0074  155.2687 N.ar    1  UNL1       -0.2105
     21 C         139.2795  126.7469  154.3670 C.3     1  UNL1        0.2542
     22 O         140.6498  127.3048  154.1201 O.3     1  UNL1       -0.4561
     23 C         143.3472  143.1156  157.6485 C.3     1  UNL1        0.1759
     24 N         142.7382  143.6946  158.8911 N.am    1  UNL1       -0.2931
     25 C         143.2585  143.2919  160.2391 C.2     1  UNL1        0.2462
     26 O         144.3878  142.3102  160.3446 O.2     1  UNL1       -0.2701
     27 H         141.9970  144.3389  158.8219 H       1  UNL1        0.1502
     28 C         142.6496  143.8709  161.4817 C.ar    1  UNL1        0.0533
     29 C         143.5322  144.3648  162.5895 C.ar    1  UNL1        0.0045
     30 C         142.9233  144.9437  163.8321 C.ar    1  UNL1        0.0001
     31 C         141.4318  145.0288  163.9669 C.ar    1  UNL1        0.0039
     32 C         140.5492  144.5350  162.8591 C.ar    1  UNL1        0.0716
     33 C         141.1581  143.9560  161.6165 C.ar    1  UNL1        0.0084
     34 C         139.0577  144.6201  162.9939 C.3     1  UNL1        0.4186
     35 F         137.5662  144.7052  163.1287 F       1  UNL1       -0.1659
     36 F         138.8987  143.7328  161.7951 F       1  UNL1       -0.1659
     37 F         139.2167  145.5075  164.1928 F       1  UNL1       -0.1659
@<TRIPOS>BOND
     1    21    22    1
     2    22    15    1
     3    15    16   ar
     4    16    17   ar
     5    17    18   ar
     6     9    18    1
     7     9    10    1
     8    10    11    1
     9    11    12    1
    10    12     5    1
    11     5     6    1
    12     6     7    1
    13     7     1    1
    14     1     2   am
    15     2     3    2
    16     2    23    1
    17    23    24    1
    18    24    25   am
    19    25    26    2
    20    25    28    1
    21    28    29   ar
    22    29    30   ar
    23    30    31   ar
    24    31    32   ar
    25    32    34    1
    26    34    35    1
    27    34    36    1
    28    34    37    1
    29    32    33   ar
    30     7     8    1
    31    12    13    1
    32    13    14    1
    33    18    19   ar
    34    19    20   ar
    35    20    15   ar
    36    14     9    1
    37     8     5    1
    38    33    28   ar
    39     1     4    1
    40    24    27    1
@<TRIPOS>MOLECULE
*****
 37 40 0 0 0
SMALL
GASTEIGER

@<TRIPOS>ATOM
      1 N         140.2198  140.4789  163.0518 N.am    1  UNL1       -0.3018
      2 C         138.9853  139.6959  163.3876 C.2     1  UNL1        0.2426
      3 O         137.7515  139.8441  162.5473 O.2     1  UNL1       -0.2733
      4 H         141.0295  140.3817  163.6033 H       1  UNL1        0.1495
      5 N         140.2218  142.7270  160.2128 N.3     1  UNL1       -0.2711
      6 C         140.9351  141.4532  160.5577 C.3     1  UNL1        0.0933
      7 C         140.2206  141.4101  161.8759 C.3     1  UNL1        0.1035
      8 C         139.5073  142.6838  161.5311 C.3     1  UNL1        0.0933
      9 C         140.2243  145.5206  156.6849 C.3     1  UNL1        0.0240
     10 C         141.0607  145.8336  157.8901 C.3     1  UNL1        0.0058
     11 C         141.0598  144.9025  159.0661 C.3     1  UNL1        0.0163
     12 C         140.2227  143.6582  159.0369 C.3     1  UNL1        0.0576
     13 C         139.3863  143.3451  157.8317 C.3     1  UNL1        0.0163
     14 C         139.3872  144.2763  156.6557 C.3     1  UNL1        0.0058
     15 C         140.2269  148.3141  153.1570 C.ar    1  UNL1        0.2250
     16 C         139.4209  148.6477  154.3773 C.ar    1  UNL1        0.0574
     17 C         139.4200  147.7165  155.5532 C.ar    1  UNL1        0.0020
     18 C         140.2252  146.4518  155.5090 C.ar    1  UNL1       -0.0031
     19 C         141.0312  146.1182  154.2887 C.ar    1  UNL1        0.0977
     20 N         141.0320  147.0493  153.1128 N.ar    1  UNL1       -0.2105
     21 C         139.8785  150.6918  152.1696 C.3     1  UNL1        0.2542
     22 O         140.2277  149.2453  151.9811 O.3     1  UNL1       -0.4561
     23 C         138.9844  138.7647  164.5635 C.3     1  UNL1        0.1759
     24 N         139.3778  139.2695  165.9202 N.am    1  UNL1       -0.2931
     25 C         140.8278  139.4294  166.2695 C.2     1  UNL1        0.2462
     26 O         141.8844  139.0844  165.2622 O.2     1  UNL1       -0.2701
     27 H         138.6843  139.4959  166.5813 H       1  UNL1        0.1502
     28 C         141.2212  139.9342  167.6261 C.ar    1  UNL1        0.0533
     29 C         142.4557  139.4052  168.2942 C.ar    1  UNL1        0.0045
     30 C         142.8492  139.9100  169.6508 C.ar    1  UNL1        0.0001
     31 C         142.0081  140.9437  170.3394 C.ar    1  UNL1        0.0039
     32 C         140.7736  141.4726  169.6714 C.ar    1  UNL1        0.0716
     33 C         140.3801  140.9678  168.3147 C.ar    1  UNL1        0.0084
     34 C         139.9326  142.5063  170.3599 C.3     1  UNL1        0.4186
     35 F         139.0915  143.5400  171.0485 F       1  UNL1       -0.1659
     36 F         138.7630  141.5673  170.3409 F       1  UNL1       -0.1659
     37 F         141.1022  143.4453  170.3789 F       1  UNL1       -0.1659
@<TRIPOS>BOND
     1    21    22    1
     2    22    15    1
     3    15    16   ar
     4    16    17   ar
     5    17    18   ar
     6     9    18    1
     7     9    10    1
     8    10    11    1
     9    11    12    1
    10    12     5    1
    11     5     6    1
    12     6     7    1
    13     7     1    1
    14     1     2   am
    15     2     3    2
    16     2    23    1
    17    23    24    1
    18    24    25   am
    19    25    26    2
    20    25    28    1
    21    28    29   ar
    22    29    30   ar
    23    30    31   ar
    24    31    32   ar
    25    32    34    1
    26    34    35    1
    27    34    36    1
    28    34    37    1
    29    32    33   ar
    30     7     8    1
    31    12    13    1
    32    13    14    1
    33    18    19   ar
    34    19    20   ar
    35    20    15   ar
    36    14     9    1
    37     8     5    1
    38    33    28   ar
    39     1     4    1
    40    24    27    1
