@<TRIPOS>MOLECULE
*****
 25 28 0 0 0
SMALL
GASTEIGER

@<TRIPOS>ATOM
      1 C         141.9369  140.7078  168.2290 C.ar    1  UNL1        0.0693
      2 C         142.6504  139.3937  168.1111 C.ar    1  UNL1        0.0155
      3 C         142.9173  138.8039  166.7581 C.ar    1  UNL1        0.0027
      4 C         142.4706  139.5283  165.5228 C.ar    1  UNL1        0.0174
      5 C         142.7375  138.9384  164.1697 C.ar    1  UNL1       -0.0027
      6 C         142.2908  139.6628  162.9344 C.ar    1  UNL1       -0.0207
      7 C         141.5773  140.9770  163.0523 C.ar    1  UNL1       -0.0027
      8 C         141.3105  141.5668  164.4054 C.ar    1  UNL1        0.0188
      9 C         141.7571  140.8424  165.6407 C.ar    1  UNL1        0.0809
     10 N         141.4903  141.4322  166.9938 N.ar    1  UNL1       -0.2489
     11 C         139.1576  140.4501  169.9197 C.3     1  UNL1        0.0499
     12 C         140.3925  141.1792  170.3592 C.2     1  UNL1        0.0692
     13 N         140.5668  141.9179  171.6531 N.2     1  UNL1       -0.1566
     14 N         141.9521  142.4929  171.6756 N.2     1  UNL1       -0.1566
     15 C         142.6339  142.1096  170.3957 C.2     1  UNL1        0.0692
     16 C         144.0338  142.4741  169.9990 C.3     1  UNL1        0.0499
     17 C         141.6701  141.2977  169.5821 C.3     1  UNL1        0.1155
     18 C         142.5577  139.0730  161.5813 C.3     1  UNL1        0.0437
     19 C         141.5183  138.2196  160.9169 C.3     1  UNL1        0.0768
     20 N         140.0790  138.6415  160.9332 N.3     1  UNL1       -0.2737
     21 C         139.3841  139.4464  159.8753 C.3     1  UNL1        0.0721
     22 C         137.9575  139.6350  160.2986 C.3     1  UNL1        0.0187
     23 C         137.7707  138.9466  161.6182 C.3     1  UNL1        0.0174
     24 C         139.0819  138.3326  162.0104 C.3     1  UNL1        0.0576
     25 C         139.3489  137.5475  163.2603 C.3     1  UNL1        0.0173
@<TRIPOS>BOND
     1    11    12    1
     2    12    13    2
     3    13    14    1
     4    14    15    2
     5    15    16    1
     6    15    17    1
     7    17     1    1
     8     1     2   ar
     9     2     3   ar
    10     3     4   ar
    11     4     5   ar
    12     5     6   ar
    13     6    18    1
    14    18    19    1
    15    19    20    1
    16    20    21    1
    17    21    22    1
    18    22    23    1
    19    23    24    1
    20    24    25    1
    21     6     7   ar
    22     7     8   ar
    23     8     9   ar
    24     9    10   ar
    25    17    12    1
    26    10     1   ar
    27     9     4   ar
    28    24    20    1
@<TRIPOS>MOLECULE
*****
 25 28 0 0 0
SMALL
GASTEIGER

@<TRIPOS>ATOM
      1 C         141.9370  140.7055  168.2260 C.ar    1  UNL1        0.0693
      2 C         142.6493  139.3904  168.1124 C.ar    1  UNL1        0.0155
      3 C         142.9215  138.7992  166.7610 C.ar    1  UNL1        0.0027
      4 C         142.4812  139.5231  165.5232 C.ar    1  UNL1        0.0174
      5 C         142.7534  138.9318  164.1717 C.ar    1  UNL1       -0.0027
      6 C         142.3131  139.6558  162.9339 C.ar    1  UNL1       -0.0207
      7 C         141.6007  140.9710  163.0476 C.ar    1  UNL1       -0.0027
      8 C         141.3286  141.5622  164.3991 C.ar    1  UNL1        0.0188
      9 C         141.7689  140.8382  165.6368 C.ar    1  UNL1        0.0809
     10 N         141.4967  141.4294  166.9883 N.ar    1  UNL1       -0.2489
     11 C         144.0282  142.4703  170.0043 C.3     1  UNL1        0.0499
     12 C         142.6260  142.1079  170.3948 C.2     1  UNL1        0.0692
     13 N         141.9389  142.4931  171.6714 N.2     1  UNL1       -0.1566
     14 N         140.5530  141.9199  171.6430 N.2     1  UNL1       -0.1566
     15 C         140.3836  141.1806  170.3489 C.2     1  UNL1        0.0692
     16 C         139.1496  140.4528  169.9043 C.3     1  UNL1        0.0499
     17 C         141.6648  141.2967  169.5775 C.3     1  UNL1        0.1155
     18 C         142.5853  139.0646  161.5825 C.3     1  UNL1        0.0437
     19 C         141.5527  138.2018  160.9195 C.3     1  UNL1        0.0768
     20 N         140.1155  138.6310  160.9024 N.3     1  UNL1       -0.2737
     21 C         139.4466  139.4295  159.8230 C.3     1  UNL1        0.0721
     22 C         138.0126  139.6291  160.2151 C.3     1  UNL1        0.0187
     23 C         137.7953  138.9540  161.5369 C.3     1  UNL1        0.0174
     24 C         139.0949  138.3372  161.9616 C.3     1  UNL1        0.0576
     25 C         139.3323  137.5625  163.2240 C.3     1  UNL1        0.0173
@<TRIPOS>BOND
     1    11    12    1
     2    12    13    2
     3    13    14    1
     4    14    15    2
     5    15    16    1
     6    15    17    1
     7    17     1    1
     8     1     2   ar
     9     2     3   ar
    10     3     4   ar
    11     4     5   ar
    12     5     6   ar
    13     6    18    1
    14    18    19    1
    15    19    20    1
    16    20    21    1
    17    21    22    1
    18    22    23    1
    19    23    24    1
    20    24    25    1
    21     6     7   ar
    22     7     8   ar
    23     8     9   ar
    24     9    10   ar
    25    17    12    1
    26    10     1   ar
    27     9     4   ar
    28    24    20    1
@<TRIPOS>MOLECULE
*****
 25 28 0 0 0
SMALL
GASTEIGER

@<TRIPOS>ATOM
      1 C         141.1078  141.5497  167.9448 C.ar    1  UNL1        0.0693
      2 C         142.1573  142.1137  167.0334 C.ar    1  UNL1        0.0155
      3 C         141.9384  142.1176  165.5495 C.ar    1  UNL1        0.0027
      4 C         140.6701  141.5575  164.9769 C.ar    1  UNL1        0.0174
      5 C         140.4513  141.5614  163.4929 C.ar    1  UNL1       -0.0027
      6 C         139.1830  141.0013  162.9204 C.ar    1  UNL1       -0.0207
      7 C         138.1336  140.4373  163.8318 C.ar    1  UNL1       -0.0027
      8 C         138.3525  140.4335  165.3158 C.ar    1  UNL1        0.0188
      9 C         139.6207  140.9935  165.8883 C.ar    1  UNL1        0.0809
     10 N         139.8396  140.9896  167.3722 N.ar    1  UNL1       -0.2489
     11 C         140.4284  143.9999  169.9904 C.3     1  UNL1        0.0499
     12 C         141.0144  142.6720  170.3690 C.2     1  UNL1        0.0692
     13 N         141.3909  142.2372  171.7543 N.2     1  UNL1       -0.1566
     14 N         141.9360  140.8422  171.6703 N.2     1  UNL1       -0.1566
     15 C         141.8962  140.4149  170.2330 C.2     1  UNL1        0.0692
     16 C         142.3470  139.0895  169.6945 C.3     1  UNL1        0.0499
     17 C         141.3267  141.5458  169.4288 C.3     1  UNL1        0.1155
     18 C         138.9642  141.0052  161.4365 C.3     1  UNL1        0.0437
     19 C         138.4144  142.2275  160.7626 C.3     1  UNL1        0.0768
     20 N         139.0486  143.5654  161.0024 N.3     1  UNL1       -0.2737
     21 C         140.0924  144.2134  160.1418 C.3     1  UNL1        0.0721
     22 C         140.4393  145.5388  160.7524 C.3     1  UNL1        0.0187
     23 C         139.6099  145.7100  161.9906 C.3     1  UNL1        0.0174
     24 C         138.7504  144.4904  162.1450 C.3     1  UNL1        0.0576
     25 C         137.7657  144.2397  163.2484 C.3     1  UNL1        0.0173
@<TRIPOS>BOND
     1    11    12    1
     2    12    13    2
     3    13    14    1
     4    14    15    2
     5    15    16    1
     6    15    17    1
     7    17     1    1
     8     1     2   ar
     9     2     3   ar
    10     3     4   ar
    11     4     5   ar
    12     5     6   ar
    13     6    18    1
    14    18    19    1
    15    19    20    1
    16    20    21    1
    17    21    22    1
    18    22    23    1
    19    23    24    1
    20    24    25    1
    21     6     7   ar
    22     7     8   ar
    23     8     9   ar
    24     9    10   ar
    25    17    12    1
    26    10     1   ar
    27     9     4   ar
    28    24    20    1
@<TRIPOS>MOLECULE
*****
 25 28 0 0 0
SMALL
GASTEIGER

@<TRIPOS>ATOM
      1 C         141.3845  141.2753  168.0117 C.ar    1  UNL1        0.0693
      2 C         140.7813  142.2953  167.0922 C.ar    1  UNL1        0.0155
      3 C         140.8636  142.1073  165.6063 C.ar    1  UNL1        0.0027
      4 C         141.5492  140.8993  165.0400 C.ar    1  UNL1        0.0174
      5 C         141.6316  140.7113  163.5541 C.ar    1  UNL1       -0.0027
      6 C         142.3172  139.5033  162.9878 C.ar    1  UNL1       -0.0207
      7 C         142.9204  138.4833  163.9074 C.ar    1  UNL1       -0.0027
      8 C         142.8381  138.6713  165.3933 C.ar    1  UNL1        0.0188
      9 C         142.1525  139.8793  165.9596 C.ar    1  UNL1        0.0809
     10 N         142.0701  140.0673  167.4454 N.ar    1  UNL1       -0.2489
     11 C         143.6856  142.6015  169.9080 C.3     1  UNL1        0.0499
     12 C         142.3598  142.0728  170.3692 C.2     1  UNL1        0.0692
     13 N         141.8590  142.0609  171.7831 N.2     1  UNL1       -0.1566
     14 N         140.4917  141.4440  171.7854 N.2     1  UNL1       -0.1566
     15 C         140.1476  141.0746  170.3729 C.2     1  UNL1        0.0692
     16 C         138.8727  140.4298  169.9159 C.3     1  UNL1        0.0499
     17 C         141.3021  141.4632  169.4977 C.3     1  UNL1        0.1155
     18 C         142.3995  139.3153  161.5019 C.3     1  UNL1        0.0437
     19 C         141.3831  138.4679  160.7956 C.3     1  UNL1        0.0768
     20 N         139.9298  138.8342  160.8547 N.3     1  UNL1       -0.2737
     21 C         139.1940  139.6854  159.8627 C.3     1  UNL1        0.0721
     22 C         137.7665  139.7910  160.3111 C.3     1  UNL1        0.0187
     23 C         137.6200  139.0050  161.5803 C.3     1  UNL1        0.0174
     24 C         138.9570  138.4137  161.9163 C.3     1  UNL1        0.0576
     25 C         139.2668  137.5531  163.1051 C.3     1  UNL1        0.0173
@<TRIPOS>BOND
     1    11    12    1
     2    12    13    2
     3    13    14    1
     4    14    15    2
     5    15    16    1
     6    15    17    1
     7    17     1    1
     8     1     2   ar
     9     2     3   ar
    10     3     4   ar
    11     4     5   ar
    12     5     6   ar
    13     6    18    1
    14    18    19    1
    15    19    20    1
    16    20    21    1
    17    21    22    1
    18    22    23    1
    19    23    24    1
    20    24    25    1
    21     6     7   ar
    22     7     8   ar
    23     8     9   ar
    24     9    10   ar
    25    17    12    1
    26    10     1   ar
    27     9     4   ar
    28    24    20    1
@<TRIPOS>MOLECULE
*****
 25 28 0 0 0
SMALL
GASTEIGER

@<TRIPOS>ATOM
      1 C         141.8530  140.5662  168.2690 C.ar    1  UNL1        0.0693
      2 C         142.7615  139.3750  168.1940 C.ar    1  UNL1        0.0155
      3 C         143.0451  138.7303  166.8697 C.ar    1  UNL1        0.0027
      4 C         142.4202  139.2768  165.6203 C.ar    1  UNL1        0.0174
      5 C         142.7038  138.6320  164.2959 C.ar    1  UNL1       -0.0027
      6 C         142.0789  139.1785  163.0466 C.ar    1  UNL1       -0.0207
      7 C         141.1704  140.3698  163.1216 C.ar    1  UNL1       -0.0027
      8 C         140.8868  141.0145  164.4460 C.ar    1  UNL1        0.0188
      9 C         141.5117  140.4680  165.6953 C.ar    1  UNL1        0.0809
     10 N         141.2281  141.1127  167.0196 N.ar    1  UNL1       -0.2489
     11 C         143.9337  142.3898  169.9995 C.3     1  UNL1        0.0499
     12 C         142.5257  142.0492  170.3887 C.2     1  UNL1        0.0692
     13 N         141.8270  142.4869  171.6418 N.2     1  UNL1       -0.1566
     14 N         140.4387  141.9192  171.6208 N.2     1  UNL1       -0.1566
     15 C         140.2795  141.1306  170.3548 C.2     1  UNL1        0.0692
     16 C         139.0468  140.3915  169.9256 C.3     1  UNL1        0.0499
     17 C         141.5693  141.2109  169.5934 C.3     1  UNL1        0.1155
     18 C         142.3625  138.5338  161.7223 C.3     1  UNL1        0.0437
     19 C         143.6190  138.8734  160.9765 C.3     1  UNL1        0.0768
     20 N         143.9244  140.3010  160.6324 N.3     1  UNL1       -0.2737
     21 C         143.6121  140.9808  159.3322 C.3     1  UNL1        0.0721
     22 C         144.0903  142.3995  159.4242 C.3     1  UNL1        0.0187
     23 C         144.6982  142.5966  160.7814 C.3     1  UNL1        0.0174
     24 C         144.5956  141.2997  161.5280 C.3     1  UNL1        0.0576
     25 C         145.0793  141.0460  162.9250 C.3     1  UNL1        0.0173
@<TRIPOS>BOND
     1    11    12    1
     2    12    13    2
     3    13    14    1
     4    14    15    2
     5    15    16    1
     6    15    17    1
     7    17     1    1
     8     1     2   ar
     9     2     3   ar
    10     3     4   ar
    11     4     5   ar
    12     5     6   ar
    13     6    18    1
    14    18    19    1
    15    19    20    1
    16    20    21    1
    17    21    22    1
    18    22    23    1
    19    23    24    1
    20    24    25    1
    21     6     7   ar
    22     7     8   ar
    23     8     9   ar
    24     9    10   ar
    25    17    12    1
    26    10     1   ar
    27     9     4   ar
    28    24    20    1
@<TRIPOS>MOLECULE
*****
 25 28 0 0 0
SMALL
GASTEIGER

@<TRIPOS>ATOM
      1 C         141.4288  141.8233  168.0359 C.ar    1  UNL1        0.0693
      2 C         140.3501  141.3649  167.0999 C.ar    1  UNL1        0.0155
      3 C         140.5523  141.4632  165.6168 C.ar    1  UNL1        0.0027
      4 C         141.8332  142.0200  165.0698 C.ar    1  UNL1        0.0174
      5 C         142.0354  142.1183  163.5867 C.ar    1  UNL1       -0.0027
      6 C         143.3163  142.6750  163.0397 C.ar    1  UNL1       -0.0207
      7 C         144.3951  143.1335  163.9758 C.ar    1  UNL1       -0.0027
      8 C         144.1929  143.0352  165.4588 C.ar    1  UNL1        0.0188
      9 C         142.9119  142.4784  166.0058 C.ar    1  UNL1        0.0809
     10 N         142.7097  142.3801  167.4888 N.ar    1  UNL1       -0.2489
     11 C         142.1066  139.2294  169.8965 C.3     1  UNL1        0.0499
     12 C         141.5382  140.5327  170.3742 C.2     1  UNL1        0.0692
     13 N         141.1815  140.8726  171.7909 N.2     1  UNL1       -0.1566
     14 N         140.6495  142.2750  171.8114 N.2     1  UNL1       -0.1566
     15 C         140.6774  142.8018  170.4072 C.2     1  UNL1        0.0692
     16 C         140.2339  144.1658  169.9683 C.3     1  UNL1        0.0499
     17 C         141.2266  141.7250  169.5190 C.3     1  UNL1        0.1155
     18 C         143.5186  142.7734  161.5567 C.3     1  UNL1        0.0437
     19 C         144.3905  141.7774  160.8509 C.3     1  UNL1        0.0768
     20 N         143.8998  140.3781  160.6254 N.3     1  UNL1       -0.2737
     21 C         143.3114  139.8444  159.3529 C.3     1  UNL1        0.0721
     22 C         142.9593  138.4031  159.5737 C.3     1  UNL1        0.0187
     23 C         143.3300  138.0461  160.9827 C.3     1  UNL1        0.0174
     24 C         143.9112  139.2667  161.6326 C.3     1  UNL1        0.0576
     25 C         144.4154  139.3595  163.0423 C.3     1  UNL1        0.0173
@<TRIPOS>BOND
     1    11    12    1
     2    12    13    2
     3    13    14    1
     4    14    15    2
     5    15    16    1
     6    15    17    1
     7    17     1    1
     8     1     2   ar
     9     2     3   ar
    10     3     4   ar
    11     4     5   ar
    12     5     6   ar
    13     6    18    1
    14    18    19    1
    15    19    20    1
    16    20    21    1
    17    21    22    1
    18    22    23    1
    19    23    24    1
    20    24    25    1
    21     6     7   ar
    22     7     8   ar
    23     8     9   ar
    24     9    10   ar
    25    17    12    1
    26    10     1   ar
    27     9     4   ar
    28    24    20    1
@<TRIPOS>MOLECULE
*****
 25 28 0 0 0
SMALL
GASTEIGER

@<TRIPOS>ATOM
      1 C         141.1217  141.4399  167.9633 C.ar    1  UNL1        0.0693
      2 C         142.1968  141.9798  167.0674 C.ar    1  UNL1        0.0155
      3 C         142.0464  141.8910  165.5777 C.ar    1  UNL1        0.0027
      4 C         140.8208  141.2623  164.9838 C.ar    1  UNL1        0.0174
      5 C         140.6704  141.1735  163.4939 C.ar    1  UNL1       -0.0027
      6 C         139.4449  140.5448  162.9000 C.ar    1  UNL1       -0.0207
      7 C         138.3697  140.0049  163.7960 C.ar    1  UNL1       -0.0027
      8 C         138.5202  140.0937  165.2857 C.ar    1  UNL1        0.0188
      9 C         139.7457  140.7224  165.8796 C.ar    1  UNL1        0.0809
     10 N         139.8962  140.8112  167.3694 N.ar    1  UNL1       -0.2489
     11 C         140.3235  144.0002  169.8227 C.3     1  UNL1        0.0499
     12 C         140.9053  142.7055  170.3078 C.2     1  UNL1        0.0692
     13 N         141.2222  142.3603  171.7327 N.2     1  UNL1       -0.1566
     14 N         141.7850  140.9701  171.7587 N.2     1  UNL1       -0.1566
     15 C         141.8159  140.4561  170.3499 C.2     1  UNL1        0.0692
     16 C         142.3047  139.1066  169.9142 C.3     1  UNL1        0.0499
     17 C         141.2721  141.5287  169.4531 C.3     1  UNL1        0.1155
     18 C         139.2944  140.4560  161.4103 C.3     1  UNL1        0.0437
     19 C         139.8885  139.2982  160.6641 C.3     1  UNL1        0.0768
     20 N         141.3347  138.9473  160.8522 N.3     1  UNL1       -0.2737
     21 C         142.4769  139.4355  160.0114 C.3     1  UNL1        0.0721
     22 C         143.7408  138.8366  160.5536 C.3     1  UNL1        0.0187
     23 C         143.3795  137.9782  161.7296 C.3     1  UNL1        0.0174
     24 C         141.8925  138.0467  161.9141 C.3     1  UNL1        0.0576
     25 C         141.1021  137.3388  162.9743 C.3     1  UNL1        0.0173
@<TRIPOS>BOND
     1    11    12    1
     2    12    13    2
     3    13    14    1
     4    14    15    2
     5    15    16    1
     6    15    17    1
     7    17     1    1
     8     1     2   ar
     9     2     3   ar
    10     3     4   ar
    11     4     5   ar
    12     5     6   ar
    13     6    18    1
    14    18    19    1
    15    19    20    1
    16    20    21    1
    17    21    22    1
    18    22    23    1
    19    23    24    1
    20    24    25    1
    21     6     7   ar
    22     7     8   ar
    23     8     9   ar
    24     9    10   ar
    25    17    12    1
    26    10     1   ar
    27     9     4   ar
    28    24    20    1
@<TRIPOS>MOLECULE
*****
 25 28 0 0 0
SMALL
GASTEIGER

@<TRIPOS>ATOM
      1 C         141.7256  138.5304  159.5601 C.ar    1  UNL1        0.0693
      2 C         140.2434  138.5935  159.3386 C.ar    1  UNL1        0.0155
      3 C         139.3036  138.3791  160.4878 C.ar    1  UNL1        0.0027
      4 C         139.8459  138.1017  161.8585 C.ar    1  UNL1        0.0174
      5 C         138.9060  137.8874  163.0078 C.ar    1  UNL1       -0.0027
      6 C         139.4484  137.6100  164.3785 C.ar    1  UNL1       -0.0207
      7 C         140.9306  137.5470  164.6000 C.ar    1  UNL1       -0.0027
      8 C         141.8705  137.7613  163.4508 C.ar    1  UNL1        0.0188
      9 C         141.3281  138.0387  162.0800 C.ar    1  UNL1        0.0809
     10 N         142.2679  138.2530  160.9308 N.ar    1  UNL1       -0.2489
     11 C         142.1144  136.5404  157.0031 C.3     1  UNL1        0.0499
     12 C         142.8442  137.8301  157.2356 C.2     1  UNL1        0.0692
     13 N         143.8808  138.4314  156.3335 N.2     1  UNL1       -0.1566
     14 N         144.3428  139.7179  156.9513 N.2     1  UNL1       -0.1566
     15 C         143.5917  139.9115  158.2352 C.2     1  UNL1        0.0692
     16 C         143.7407  141.0687  159.1779 C.3     1  UNL1        0.0499
     17 C         142.6655  138.7448  158.4108 C.3     1  UNL1        0.1155
     18 C         138.5085  137.3957  165.5277 C.3     1  UNL1        0.0437
     19 C         138.0317  138.5665  166.3351 C.3     1  UNL1        0.0768
     20 N         138.9007  139.7803  166.4817 N.3     1  UNL1       -0.2737
     21 C         139.8953  140.0254  167.5775 C.3     1  UNL1        0.0721
     22 C         140.5371  141.3586  167.3313 C.3     1  UNL1        0.0187
     23 C         139.9391  141.9375  166.0832 C.3     1  UNL1        0.0174
     24 C         138.9278  140.9620  165.5582 C.3     1  UNL1        0.0576
     25 C         138.0906  141.1375  164.3260 C.3     1  UNL1        0.0173
@<TRIPOS>BOND
     1    11    12    1
     2    12    13    2
     3    13    14    1
     4    14    15    2
     5    15    16    1
     6    15    17    1
     7    17     1    1
     8     1     2   ar
     9     2     3   ar
    10     3     4   ar
    11     4     5   ar
    12     5     6   ar
    13     6    18    1
    14    18    19    1
    15    19    20    1
    16    20    21    1
    17    21    22    1
    18    22    23    1
    19    23    24    1
    20    24    25    1
    21     6     7   ar
    22     7     8   ar
    23     8     9   ar
    24     9    10   ar
    25    17    12    1
    26    10     1   ar
    27     9     4   ar
    28    24    20    1
@<TRIPOS>MOLECULE
*****
 25 28 0 0 0
SMALL
GASTEIGER

@<TRIPOS>ATOM
      1 C         141.4697  141.9892  167.9129 C.ar    1  UNL1        0.0693
      2 C         140.2754  141.8544  167.0155 C.ar    1  UNL1        0.0155
      3 C         140.4272  142.0291  165.5335 C.ar    1  UNL1        0.0027
      4 C         141.7735  142.3387  164.9489 C.ar    1  UNL1        0.0174
      5 C         141.9253  142.5135  163.4668 C.ar    1  UNL1       -0.0027
      6 C         143.2715  142.8231  162.8822 C.ar    1  UNL1       -0.0207
      7 C         144.4659  142.9580  163.7796 C.ar    1  UNL1       -0.0027
      8 C         144.3140  142.7832  165.2616 C.ar    1  UNL1        0.0188
      9 C         142.9678  142.4736  165.8463 C.ar    1  UNL1        0.0809
     10 N         142.8159  142.2989  167.3282 N.ar    1  UNL1       -0.2489
     11 C         140.2703  144.2000  169.9922 C.3     1  UNL1        0.0499
     12 C         140.7666  142.8307  170.3507 C.2     1  UNL1        0.0692
     13 N         140.7987  142.2371  171.7278 N.2     1  UNL1       -0.1566
     14 N         141.3698  140.8540  171.6233 N.2     1  UNL1       -0.1566
     15 C         141.6907  140.5928  170.1815 C.2     1  UNL1        0.0692
     16 C         142.2808  139.3315  169.6241 C.3     1  UNL1        0.0499
     17 C         141.3179  141.8145  169.3950 C.3     1  UNL1        0.1155
     18 C         143.4234  142.9979  161.4002 C.3     1  UNL1        0.0437
     19 C         143.6637  141.8036  160.5249 C.3     1  UNL1        0.0768
     20 N         143.3119  140.4307  161.0161 N.3     1  UNL1       -0.2737
     21 C         144.2565  139.4512  161.6474 C.3     1  UNL1        0.0721
     22 C         143.4821  138.2114  161.9837 C.3     1  UNL1        0.0187
     23 C         142.0589  138.4247  161.5603 C.3     1  UNL1        0.0174
     24 C         141.9538  139.7963  160.9623 C.3     1  UNL1        0.0576
     25 C         140.7091  140.4233  160.4078 C.3     1  UNL1        0.0173
@<TRIPOS>BOND
     1    11    12    1
     2    12    13    2
     3    13    14    1
     4    14    15    2
     5    15    16    1
     6    15    17    1
     7    17     1    1
     8     1     2   ar
     9     2     3   ar
    10     3     4   ar
    11     4     5   ar
    12     5     6   ar
    13     6    18    1
    14    18    19    1
    15    19    20    1
    16    20    21    1
    17    21    22    1
    18    22    23    1
    19    23    24    1
    20    24    25    1
    21     6     7   ar
    22     7     8   ar
    23     8     9   ar
    24     9    10   ar
    25    17    12    1
    26    10     1   ar
    27     9     4   ar
    28    24    20    1
