@<TRIPOS>MOLECULE
*****
 33 36 0 0 0
SMALL
GASTEIGER

@<TRIPOS>ATOM
      1 O         137.1407  141.4874  162.5108 O.3     1  UNL1       -0.4543
      2 C         137.9774  142.3429  163.4153 C.ar    1  UNL1        0.2311
      3 N         138.1615  143.8000  163.1106 N.ar    1  UNL1       -0.1892
      4 C         138.9982  144.6555  164.0151 C.ar    1  UNL1        0.2029
      5 N         139.6507  144.0538  165.2243 N.ar    1  UNL1       -0.2046
      6 C         139.4666  142.5967  165.5290 C.ar    1  UNL1        0.1715
      7 C         138.6299  141.7413  164.6245 C.ar    1  UNL1        0.1098
      8 C         138.6286  140.3464  165.1763 C.ar    1  UNL1        0.1283
      9 N         139.4644  140.3398  166.4218 N.ar    1  UNL1       -0.1619
     10 N         139.9823  141.7306  166.6398 N.ar    1  UNL1       -0.2111
     11 C         140.8616  142.1769  167.7701 C.ar    1  UNL1        0.0949
     12 C         140.2811  142.9678  168.9047 C.ar    1  UNL1        0.0201
     13 C         141.1604  143.4141  170.0351 C.ar    1  UNL1        0.0016
     14 C         142.6203  143.0695  170.0307 C.ar    1  UNL1        0.0010
     15 C         143.2008  142.2786  168.8961 C.ar    1  UNL1        0.0129
     16 C         142.3215  141.8323  167.7658 C.ar    1  UNL1        0.0753
     17 CL        142.9021  141.0414  166.6312 Cl      1  UNL1       -0.0807
     18 C         137.7925  140.6802  161.4276 C.3     1  UNL1        0.2455
     19 C         138.7073  141.3465  160.4430 C.2     1  UNL1        0.2675
     20 O         139.8896  140.6031  159.8957 O.2     1  UNL1       -0.2708
     21 N         138.4397  142.7561  160.0057 N.am    1  UNL1       -0.2664
     22 H         137.6637  143.2440  160.3649 H       1  UNL1        0.1564
     23 C         139.3544  143.4224  159.0212 C.ar    1  UNL1        0.1342
     24 C         139.3931  142.9533  157.5970 C.ar    1  UNL1        0.0342
     25 C         140.3078  143.6196  156.6124 C.ar    1  UNL1        0.0001
     26 C         141.1838  144.7551  157.0521 C.ar    1  UNL1       -0.0026
     27 C         142.0985  145.4214  156.0676 C.3     1  UNL1        0.0327
     28 C         141.1451  145.2243  158.4763 C.ar    1  UNL1        0.0960
     29 N         140.2303  144.5579  159.4609 N.ar    1  UNL1       -0.2293
     30 C         137.5297  139.2067  161.3289 C.3     1  UNL1        0.0852
     31 C         138.3316  138.2448  162.1546 C.3     1  UNL1        0.1465
     32 C         140.7803  137.5748  162.7068 C.3     1  UNL1        0.1741
     33 O         139.6972  137.8228  161.6992 O.3     1  UNL1       -0.3510
@<TRIPOS>BOND
     1    32    33    1
     2    33    31    1
     3    31    30    1
     4    18    30    1
     5    18     1    1
     6     1     2    1
     7     2     3   ar
     8     3     4   ar
     9     4     5   ar
    10     5     6   ar
    11     6     7   ar
    12     7     8   ar
    13     8     9   ar
    14     9    10   ar
    15    10    11    1
    16    11    12   ar
    17    12    13   ar
    18    13    14   ar
    19    14    15   ar
    20    15    16   ar
    21    16    17    1
    22    18    19    1
    23    19    20    2
    24    19    21   am
    25    21    23    1
    26    23    24   ar
    27    24    25   ar
    28    25    26   ar
    29    26    27    1
    30    26    28   ar
    31    28    29   ar
    32     7     2   ar
    33    16    11   ar
    34    29    23   ar
    35    10     6   ar
    36    21    22    1
@<TRIPOS>MOLECULE
*****
 33 36 0 0 0
SMALL
GASTEIGER

@<TRIPOS>ATOM
      1 O         137.4360  140.7089  162.9626 O.3     1  UNL1       -0.4543
      2 C         138.1204  140.4338  164.2688 C.ar    1  UNL1        0.2311
      3 N         138.0086  139.0793  164.9034 N.ar    1  UNL1       -0.1892
      4 C         138.6929  138.8043  166.2095 C.ar    1  UNL1        0.2029
      5 N         139.4891  139.8838  166.8810 N.ar    1  UNL1       -0.2046
      6 C         139.6009  141.2382  166.2463 C.ar    1  UNL1        0.1715
      7 C         138.9166  141.5133  164.9402 C.ar    1  UNL1        0.1098
      8 C         139.2037  142.9348  164.5567 C.ar    1  UNL1        0.1283
      9 N         140.0655  143.5382  165.6259 N.ar    1  UNL1       -0.1619
     10 N         140.3110  142.4897  166.6701 N.ar    1  UNL1       -0.2111
     11 C         141.1239  142.6624  167.9189 C.ar    1  UNL1        0.0949
     12 C         140.5242  143.3370  169.1169 C.ar    1  UNL1        0.0201
     13 C         141.3371  143.5097  170.3656 C.ar    1  UNL1        0.0016
     14 C         142.7497  143.0077  170.4164 C.ar    1  UNL1        0.0010
     15 C         143.3493  142.3330  169.2184 C.ar    1  UNL1        0.0129
     16 C         142.5364  142.1604  167.9697 C.ar    1  UNL1        0.0753
     17 CL        143.1362  141.4857  166.7717 Cl      1  UNL1       -0.0807
     18 C         138.0448  140.2242  161.6802 C.3     1  UNL1        0.2455
     19 C         138.6491  141.2047  160.7192 C.2     1  UNL1        0.2675
     20 O         138.1520  141.2729  159.3056 O.2     1  UNL1       -0.2708
     21 N         139.7504  142.1169  161.1718 N.am    1  UNL1       -0.2664
     22 H         140.0767  142.0721  162.0996 H       1  UNL1        0.1564
     23 C         140.3547  143.0974  160.2108 C.ar    1  UNL1        0.1342
     24 C         141.6217  142.7530  159.4855 C.ar    1  UNL1        0.0342
     25 C         142.2260  143.7335  158.5245 C.ar    1  UNL1        0.0001
     26 C         141.5632  145.0584  158.2889 C.ar    1  UNL1       -0.0026
     27 C         142.1675  146.0389  157.3279 C.3     1  UNL1        0.0327
     28 C         140.2962  145.4028  159.0142 C.ar    1  UNL1        0.0960
     29 N         139.6919  144.4222  159.9752 N.ar    1  UNL1       -0.2293
     30 C         138.0493  138.7590  161.3589 C.3     1  UNL1        0.0852
     31 C         139.3442  138.0026  161.3249 C.3     1  UNL1        0.1465
     32 C         141.2380  137.4799  163.0251 C.3     1  UNL1        0.1741
     33 O         139.8276  137.2877  162.5518 O.3     1  UNL1       -0.3510
@<TRIPOS>BOND
     1    32    33    1
     2    33    31    1
     3    31    30    1
     4    18    30    1
     5    18     1    1
     6     1     2    1
     7     2     3   ar
     8     3     4   ar
     9     4     5   ar
    10     5     6   ar
    11     6     7   ar
    12     7     8   ar
    13     8     9   ar
    14     9    10   ar
    15    10    11    1
    16    11    12   ar
    17    12    13   ar
    18    13    14   ar
    19    14    15   ar
    20    15    16   ar
    21    16    17    1
    22    18    19    1
    23    19    20    2
    24    19    21   am
    25    21    23    1
    26    23    24   ar
    27    24    25   ar
    28    25    26   ar
    29    26    27    1
    30    26    28   ar
    31    28    29   ar
    32     7     2   ar
    33    16    11   ar
    34    29    23   ar
    35    10     6   ar
    36    21    22    1
@<TRIPOS>MOLECULE
*****
 33 36 0 0 0
SMALL
GASTEIGER

@<TRIPOS>ATOM
      1 O         137.0827  141.3468  162.6834 O.3     1  UNL1       -0.4543
      2 C         137.9521  142.2139  163.5450 C.ar    1  UNL1        0.2311
      3 N         138.1689  143.6534  163.1834 N.ar    1  UNL1       -0.1892
      4 C         139.0383  144.5204  164.0451 C.ar    1  UNL1        0.2029
      5 N         139.6910  143.9478  165.2683 N.ar    1  UNL1       -0.2046
      6 C         139.4742  142.5083  165.6299 C.ar    1  UNL1        0.1715
      7 C         138.6048  141.6413  164.7682 C.ar    1  UNL1        0.1098
      8 C         138.5754  140.2685  165.3722 C.ar    1  UNL1        0.1283
      9 N         139.4267  140.2872  166.6070 N.ar    1  UNL1       -0.1619
     10 N         139.9822  141.6714  166.7663 N.ar    1  UNL1       -0.2111
     11 C         140.8868  142.1370  167.8685 C.ar    1  UNL1        0.0949
     12 C         140.3526  143.0256  168.9524 C.ar    1  UNL1        0.0201
     13 C         141.2572  143.4912  170.0545 C.ar    1  UNL1        0.0016
     14 C         142.6962  143.0682  170.0729 C.ar    1  UNL1        0.0010
     15 C         143.2305  142.1796  168.9890 C.ar    1  UNL1        0.0129
     16 C         142.3259  141.7140  167.8868 C.ar    1  UNL1        0.0753
     17 CL        142.8602  140.8254  166.8029 Cl      1  UNL1       -0.0807
     18 C         137.7040  140.4446  161.6587 C.3     1  UNL1        0.2455
     19 C         137.9365  140.9428  160.2631 C.2     1  UNL1        0.2675
     20 O         138.4529  142.3332  160.0394 O.2     1  UNL1       -0.2708
     21 N         137.6525  140.0506  159.0912 N.am    1  UNL1       -0.2664
     22 H         137.3136  139.1380  159.2380 H       1  UNL1        0.1564
     23 C         137.8850  140.5488  157.6956 C.ar    1  UNL1        0.1342
     24 C         139.2846  140.7354  157.1893 C.ar    1  UNL1        0.0342
     25 C         139.5171  141.2336  155.7937 C.ar    1  UNL1        0.0001
     26 C         138.3500  141.5452  154.9043 C.ar    1  UNL1       -0.0026
     27 C         138.5825  142.0433  153.5087 C.3     1  UNL1        0.0327
     28 C         136.9504  141.3585  155.4107 C.ar    1  UNL1        0.0960
     29 N         136.7180  140.8603  156.8063 N.ar    1  UNL1       -0.2293
     30 C         138.0927  139.0441  162.0297 C.3     1  UNL1        0.0852
     31 C         139.4518  138.5224  161.6683 C.3     1  UNL1        0.1465
     32 C         140.5544  137.5683  163.8186 C.3     1  UNL1        0.1741
     33 O         140.0373  137.3671  162.4250 O.3     1  UNL1       -0.3510
@<TRIPOS>BOND
     1    32    33    1
     2    33    31    1
     3    31    30    1
     4    18    30    1
     5    18     1    1
     6     1     2    1
     7     2     3   ar
     8     3     4   ar
     9     4     5   ar
    10     5     6   ar
    11     6     7   ar
    12     7     8   ar
    13     8     9   ar
    14     9    10   ar
    15    10    11    1
    16    11    12   ar
    17    12    13   ar
    18    13    14   ar
    19    14    15   ar
    20    15    16   ar
    21    16    17    1
    22    18    19    1
    23    19    20    2
    24    19    21   am
    25    21    23    1
    26    23    24   ar
    27    24    25   ar
    28    25    26   ar
    29    26    27    1
    30    26    28   ar
    31    28    29   ar
    32     7     2   ar
    33    16    11   ar
    34    29    23   ar
    35    10     6   ar
    36    21    22    1
@<TRIPOS>MOLECULE
*****
 33 36 0 0 0
SMALL
GASTEIGER

@<TRIPOS>ATOM
      1 O         137.2601  142.1270  162.6253 O.3     1  UNL1       -0.4543
      2 C         138.0367  141.9419  161.3553 C.ar    1  UNL1        0.2311
      3 N         138.3045  143.1167  160.4620 N.ar    1  UNL1       -0.1892
      4 C         139.0810  142.9315  159.1921 C.ar    1  UNL1        0.2029
      5 N         139.5897  141.5716  158.8155 N.ar    1  UNL1       -0.2046
      6 C         139.3219  140.3968  159.7088 C.ar    1  UNL1        0.1715
      7 C         138.5454  140.5819  160.9787 C.ar    1  UNL1        0.1098
      8 C         138.4377  139.2473  161.6550 C.ar    1  UNL1        0.1283
      9 N         139.1476  138.2374  160.8030 N.ar    1  UNL1       -0.1619
     10 N         139.6941  138.9478  159.6002 N.ar    1  UNL1       -0.2111
     11 C         140.4756  138.3195  158.4846 C.ar    1  UNL1        0.0949
     12 C         139.7589  137.7276  157.3074 C.ar    1  UNL1        0.0201
     13 C         140.5404  137.0993  156.1918 C.ar    1  UNL1        0.0016
     14 C         142.0387  137.0630  156.2534 C.ar    1  UNL1        0.0010
     15 C         142.7554  137.6550  157.4306 C.ar    1  UNL1        0.0129
     16 C         141.9739  138.2832  158.5462 C.ar    1  UNL1        0.0753
     17 CL        142.6907  138.8752  159.7234 Cl      1  UNL1       -0.0807
     18 C         137.9749  142.4734  163.8977 C.3     1  UNL1        0.2455
     19 C         138.9006  141.4784  164.5327 C.2     1  UNL1        0.2675
     20 O         138.3436  140.3533  165.3535 O.2     1  UNL1       -0.2708
     21 N         140.3833  141.6086  164.3469 N.am    1  UNL1       -0.2664
     22 H         140.7490  142.3471  163.8082 H       1  UNL1        0.1564
     23 C         141.3090  140.6137  164.9818 C.ar    1  UNL1        0.1342
     24 C         141.6175  140.7049  166.4470 C.ar    1  UNL1        0.0342
     25 C         142.5431  139.7100  167.0819 C.ar    1  UNL1        0.0001
     26 C         143.1604  138.6238  166.2517 C.ar    1  UNL1       -0.0026
     27 C         144.0861  137.6289  166.8867 C.3     1  UNL1        0.0327
     28 C         142.8520  138.5325  164.7866 C.ar    1  UNL1        0.0960
     29 N         141.9263  139.5275  164.1517 N.ar    1  UNL1       -0.2293
     30 C         137.7641  143.8147  164.5351 C.3     1  UNL1        0.0852
     31 C         138.8785  144.8184  164.5566 C.3     1  UNL1        0.1465
     32 C         140.1589  145.5899  162.4316 C.3     1  UNL1        0.1741
     33 O         140.0360  144.6743  163.6133 O.3     1  UNL1       -0.3510
@<TRIPOS>BOND
     1    32    33    1
     2    33    31    1
     3    31    30    1
     4    18    30    1
     5    18     1    1
     6     1     2    1
     7     2     3   ar
     8     3     4   ar
     9     4     5   ar
    10     5     6   ar
    11     6     7   ar
    12     7     8   ar
    13     8     9   ar
    14     9    10   ar
    15    10    11    1
    16    11    12   ar
    17    12    13   ar
    18    13    14   ar
    19    14    15   ar
    20    15    16   ar
    21    16    17    1
    22    18    19    1
    23    19    20    2
    24    19    21   am
    25    21    23    1
    26    23    24   ar
    27    24    25   ar
    28    25    26   ar
    29    26    27    1
    30    26    28   ar
    31    28    29   ar
    32     7     2   ar
    33    16    11   ar
    34    29    23   ar
    35    10     6   ar
    36    21    22    1
@<TRIPOS>MOLECULE
*****
 33 36 0 0 0
SMALL
GASTEIGER

@<TRIPOS>ATOM
      1 O         141.4889  137.3553  163.0750 O.3     1  UNL1       -0.4543
      2 C         140.7218  137.9534  164.2170 C.ar    1  UNL1        0.2311
      3 N         139.2466  137.7104  164.3384 N.ar    1  UNL1       -0.1892
      4 C         138.4796  138.3084  165.4803 C.ar    1  UNL1        0.2029
      5 N         139.1877  139.1494  166.5008 N.ar    1  UNL1       -0.2046
      6 C         140.6629  139.3924  166.3793 C.ar    1  UNL1        0.1715
      7 C         141.4299  138.7944  165.2374 C.ar    1  UNL1        0.1098
      8 C         142.8659  139.2048  165.3781 C.ar    1  UNL1        0.1283
      9 N         142.9862  140.0565  166.6070 N.ar    1  UNL1       -0.1619
     10 N         141.6247  140.1724  167.2257 N.ar    1  UNL1       -0.2111
     11 C         141.2847  140.9346  168.4721 C.ar    1  UNL1        0.0949
     12 C         140.6355  142.2832  168.3730 C.ar    1  UNL1        0.0201
     13 C         140.2954  143.0453  169.6194 C.ar    1  UNL1        0.0016
     14 C         140.6046  142.4589  170.9650 C.ar    1  UNL1        0.0010
     15 C         141.2538  141.1103  171.0641 C.ar    1  UNL1        0.0129
     16 C         141.5938  140.3482  169.8177 C.ar    1  UNL1        0.0753
     17 CL        142.2431  138.9996  169.9168 Cl      1  UNL1       -0.0807
     18 C         141.8190  138.1910  161.8739 C.3     1  UNL1        0.2455
     19 C         141.2524  139.5739  161.7437 C.2     1  UNL1        0.2675
     20 O         139.8919  139.7736  161.1446 O.2     1  UNL1       -0.2708
     21 N         142.0464  140.7569  162.2128 N.am    1  UNL1       -0.2664
     22 H         142.9394  140.6258  162.6061 H       1  UNL1        0.1564
     23 C         141.4799  142.1397  162.0826 C.ar    1  UNL1        0.1342
     24 C         140.8906  142.8245  163.2800 C.ar    1  UNL1        0.0342
     25 C         140.3241  144.2073  163.1498 C.ar    1  UNL1        0.0001
     26 C         140.3469  144.9053  161.8223 C.ar    1  UNL1       -0.0026
     27 C         139.7804  146.2880  161.6921 C.3     1  UNL1        0.0327
     28 C         140.9362  144.2204  160.6249 C.ar    1  UNL1        0.0960
     29 N         141.5028  142.8376  160.7551 N.ar    1  UNL1       -0.2293
     30 C         142.7155  137.6440  160.8030 C.3     1  UNL1        0.0852
     31 C         142.9359  138.4219  159.5396 C.3     1  UNL1        0.1465
     32 C         143.8718  140.7208  158.7719 C.3     1  UNL1        0.1741
     33 O         144.0723  139.3967  159.4475 O.3     1  UNL1       -0.3510
@<TRIPOS>BOND
     1    32    33    1
     2    33    31    1
     3    31    30    1
     4    18    30    1
     5    18     1    1
     6     1     2    1
     7     2     3   ar
     8     3     4   ar
     9     4     5   ar
    10     5     6   ar
    11     6     7   ar
    12     7     8   ar
    13     8     9   ar
    14     9    10   ar
    15    10    11    1
    16    11    12   ar
    17    12    13   ar
    18    13    14   ar
    19    14    15   ar
    20    15    16   ar
    21    16    17    1
    22    18    19    1
    23    19    20    2
    24    19    21   am
    25    21    23    1
    26    23    24   ar
    27    24    25   ar
    28    25    26   ar
    29    26    27    1
    30    26    28   ar
    31    28    29   ar
    32     7     2   ar
    33    16    11   ar
    34    29    23   ar
    35    10     6   ar
    36    21    22    1
@<TRIPOS>MOLECULE
*****
 33 36 0 0 0
SMALL
GASTEIGER

@<TRIPOS>ATOM
      1 O         138.1090  139.0261  163.1568 O.3     1  UNL1       -0.4543
      2 C         138.0796  140.3482  162.4489 C.ar    1  UNL1        0.2311
      3 N         137.9153  141.6158  163.2338 N.ar    1  UNL1       -0.1892
      4 C         137.8858  142.9379  162.5259 C.ar    1  UNL1        0.2029
      5 N         138.0207  142.9924  161.0330 N.ar    1  UNL1       -0.2046
      6 C         138.1850  141.7248  160.2480 C.ar    1  UNL1        0.1715
      7 C         138.2145  140.4027  160.9559 C.ar    1  UNL1        0.1098
      8 C         138.3879  139.3280  159.9239 C.ar    1  UNL1        0.1283
      9 N         138.4656  139.9859  158.5782 N.ar    1  UNL1       -0.1619
     10 N         138.3402  141.4672  158.7784 N.ar    1  UNL1       -0.2111
     11 C         138.3656  142.5082  157.6988 C.ar    1  UNL1        0.0949
     12 C         137.2128  142.6297  156.7468 C.ar    1  UNL1        0.0201
     13 C         137.2382  143.6706  155.6671 C.ar    1  UNL1        0.0016
     14 C         138.4164  144.5902  155.5393 C.ar    1  UNL1        0.0010
     15 C         139.5692  144.4687  156.4913 C.ar    1  UNL1        0.0129
     16 C         139.5438  143.4277  157.5710 C.ar    1  UNL1        0.0753
     17 CL        140.6966  143.3063  158.5229 Cl      1  UNL1       -0.0807
     18 C         139.3950  138.5129  163.7339 C.3     1  UNL1        0.2455
     19 C         139.8779  139.0218  165.0598 C.2     1  UNL1        0.2675
     20 O         141.2117  138.5860  165.5897 O.2     1  UNL1       -0.2708
     21 N         139.0269  139.9664  165.8557 N.am    1  UNL1       -0.2664
     22 H         138.1514  140.2524  165.5078 H       1  UNL1        0.1564
     23 C         139.5097  140.4753  167.1815 C.ar    1  UNL1        0.1342
     24 C         140.3708  141.7019  167.2456 C.ar    1  UNL1        0.0342
     25 C         140.8536  142.2108  168.5715 C.ar    1  UNL1        0.0001
     26 C         140.4754  141.4931  169.8332 C.ar    1  UNL1       -0.0026
     27 C         140.9583  142.0020  171.1590 C.3     1  UNL1        0.0327
     28 C         139.6144  140.2665  169.7691 C.ar    1  UNL1        0.0960
     29 N         139.1316  139.7576  168.4432 N.ar    1  UNL1       -0.2293
     30 C         140.1979  137.4908  162.9852 C.3     1  UNL1        0.0852
     31 C         141.2999  137.9288  162.0666 C.3     1  UNL1        0.1465
     32 C         143.8450  137.9667  161.5461 C.3     1  UNL1        0.1741
     33 O         142.7231  137.9098  162.5401 O.3     1  UNL1       -0.3510
@<TRIPOS>BOND
     1    32    33    1
     2    33    31    1
     3    31    30    1
     4    18    30    1
     5    18     1    1
     6     1     2    1
     7     2     3   ar
     8     3     4   ar
     9     4     5   ar
    10     5     6   ar
    11     6     7   ar
    12     7     8   ar
    13     8     9   ar
    14     9    10   ar
    15    10    11    1
    16    11    12   ar
    17    12    13   ar
    18    13    14   ar
    19    14    15   ar
    20    15    16   ar
    21    16    17    1
    22    18    19    1
    23    19    20    2
    24    19    21   am
    25    21    23    1
    26    23    24   ar
    27    24    25   ar
    28    25    26   ar
    29    26    27    1
    30    26    28   ar
    31    28    29   ar
    32     7     2   ar
    33    16    11   ar
    34    29    23   ar
    35    10     6   ar
    36    21    22    1
@<TRIPOS>MOLECULE
*****
 33 36 0 0 0
SMALL
GASTEIGER

@<TRIPOS>ATOM
      1 O         141.3137  143.0296  159.3527 O.3     1  UNL1       -0.4543
      2 C         140.3218  142.1058  159.9952 C.ar    1  UNL1        0.2311
      3 N         139.0993  141.6754  159.2400 N.ar    1  UNL1       -0.1892
      4 C         138.1074  140.7517  159.8825 C.ar    1  UNL1        0.2029
      5 N         138.3381  140.2583  161.2801 N.ar    1  UNL1       -0.2046
      6 C         139.5605  140.6887  162.0353 C.ar    1  UNL1        0.1715
      7 C         140.5524  141.6124  161.3928 C.ar    1  UNL1        0.1098
      8 C         141.6569  141.8633  162.3763 C.ar    1  UNL1        0.1283
      9 N         141.3476  141.0946  163.6267 N.ar    1  UNL1       -0.1619
     10 N         140.0520  140.3686  163.4159 N.ar    1  UNL1       -0.2111
     11 C         139.3679  139.4788  164.4110 C.ar    1  UNL1        0.0949
     12 C         138.5909  140.0797  165.5447 C.ar    1  UNL1        0.0201
     13 C         137.9068  139.1899  166.5398 C.ar    1  UNL1        0.0016
     14 C         137.9996  137.6992  166.4012 C.ar    1  UNL1        0.0010
     15 C         138.7766  137.0984  165.2676 C.ar    1  UNL1        0.0129
     16 C         139.4607  137.9881  164.2725 C.ar    1  UNL1        0.0753
     17 CL        140.2377  137.3872  163.1388 Cl      1  UNL1       -0.0807
     18 C         141.1893  144.5124  159.5417 C.3     1  UNL1        0.2455
     19 C         141.1841  145.4227  158.3493 C.2     1  UNL1        0.2675
     20 O         142.4091  146.2181  158.0076 O.2     1  UNL1       -0.2708
     21 N         139.9539  145.5374  157.4988 N.am    1  UNL1       -0.2664
     22 H         139.1499  145.0153  157.7231 H       1  UNL1        0.1564
     23 C         139.9487  146.4476  156.3065 C.ar    1  UNL1        0.1342
     24 C         139.1077  147.6896  156.3148 C.ar    1  UNL1        0.0342
     25 C         139.1024  148.5998  155.1225 C.ar    1  UNL1        0.0001
     26 C         139.9382  148.2679  153.9219 C.ar    1  UNL1       -0.0026
     27 C         139.9329  149.1780  152.7296 C.3     1  UNL1        0.0327
     28 C         140.7792  147.0258  153.9136 C.ar    1  UNL1        0.0960
     29 N         140.7844  146.1157  155.1060 N.ar    1  UNL1       -0.2293
     30 C         141.0701  145.0851  160.9229 C.3     1  UNL1        0.0852
     31 C         139.9411  146.0154  161.2543 C.3     1  UNL1        0.1465
     32 C         138.9757  144.4962  163.1278 C.3     1  UNL1        0.1741
     33 O         138.7706  145.5203  162.0512 O.3     1  UNL1       -0.3510
@<TRIPOS>BOND
     1    32    33    1
     2    33    31    1
     3    31    30    1
     4    18    30    1
     5    18     1    1
     6     1     2    1
     7     2     3   ar
     8     3     4   ar
     9     4     5   ar
    10     5     6   ar
    11     6     7   ar
    12     7     8   ar
    13     8     9   ar
    14     9    10   ar
    15    10    11    1
    16    11    12   ar
    17    12    13   ar
    18    13    14   ar
    19    14    15   ar
    20    15    16   ar
    21    16    17    1
    22    18    19    1
    23    19    20    2
    24    19    21   am
    25    21    23    1
    26    23    24   ar
    27    24    25   ar
    28    25    26   ar
    29    26    27    1
    30    26    28   ar
    31    28    29   ar
    32     7     2   ar
    33    16    11   ar
    34    29    23   ar
    35    10     6   ar
    36    21    22    1
@<TRIPOS>MOLECULE
*****
 33 36 0 0 0
SMALL
GASTEIGER

@<TRIPOS>ATOM
      1 O         139.9568  137.5797  161.6082 O.3     1  UNL1       -0.4543
      2 C         141.3371  138.0293  161.2304 C.ar    1  UNL1        0.2311
      3 N         142.4872  137.7827  162.1613 N.ar    1  UNL1       -0.1892
      4 C         143.8675  138.2323  161.7835 C.ar    1  UNL1        0.2029
      5 N         144.0976  138.9284  160.4749 N.ar    1  UNL1       -0.2046
      6 C         142.9475  139.1750  159.5441 C.ar    1  UNL1        0.1715
      7 C         141.5673  138.7254  159.9218 C.ar    1  UNL1        0.1098
      8 C         140.6355  139.1040  158.8089 C.ar    1  UNL1        0.1283
      9 N         141.4400  139.7877  157.7433 N.ar    1  UNL1       -0.1619
     10 N         142.8689  139.8315  158.1977 N.ar    1  UNL1       -0.2111
     11 C         144.0175  140.4273  157.4389 C.ar    1  UNL1        0.0949
     12 C         144.5058  139.7721  156.1810 C.ar    1  UNL1        0.0201
     13 C         145.6544  140.3679  155.4222 C.ar    1  UNL1        0.0016
     14 C         146.3147  141.6188  155.9213 C.ar    1  UNL1        0.0010
     15 C         145.8264  142.2740  157.1791 C.ar    1  UNL1        0.0129
     16 C         144.6778  141.6782  157.9379 C.ar    1  UNL1        0.0753
     17 CL        144.1895  142.3335  159.1958 Cl      1  UNL1       -0.0807
     18 C         139.1337  138.4008  162.5560 C.3     1  UNL1        0.2455
     19 C         139.5287  138.5003  163.9997 C.2     1  UNL1        0.2675
     20 O         138.9017  137.5895  165.0133 O.2     1  UNL1       -0.2708
     21 N         140.5506  139.5106  164.4298 N.am    1  UNL1       -0.2664
     22 H         140.9621  140.1084  163.7645 H       1  UNL1        0.1564
     23 C         140.9456  139.6102  165.8734 C.ar    1  UNL1        0.1342
     24 C         139.9761  140.1540  166.8804 C.ar    1  UNL1        0.0342
     25 C         140.3710  140.2536  168.3240 C.ar    1  UNL1        0.0001
     26 C         141.7356  139.8093  168.7606 C.ar    1  UNL1       -0.0026
     27 C         142.1306  139.9088  170.2042 C.3     1  UNL1        0.0327
     28 C         142.7052  139.2654  167.7536 C.ar    1  UNL1        0.0960
     29 N         142.3101  139.1658  166.3099 N.ar    1  UNL1       -0.2293
     30 C         137.9158  139.1223  162.0602 C.3     1  UNL1        0.0852
     31 C         137.9846  140.5899  161.7578 C.3     1  UNL1        0.1465
     32 C         137.6980  142.0061  163.9171 C.3     1  UNL1        0.1741
     33 O         137.1895  141.5626  162.5774 O.3     1  UNL1       -0.3510
@<TRIPOS>BOND
     1    32    33    1
     2    33    31    1
     3    31    30    1
     4    18    30    1
     5    18     1    1
     6     1     2    1
     7     2     3   ar
     8     3     4   ar
     9     4     5   ar
    10     5     6   ar
    11     6     7   ar
    12     7     8   ar
    13     8     9   ar
    14     9    10   ar
    15    10    11    1
    16    11    12   ar
    17    12    13   ar
    18    13    14   ar
    19    14    15   ar
    20    15    16   ar
    21    16    17    1
    22    18    19    1
    23    19    20    2
    24    19    21   am
    25    21    23    1
    26    23    24   ar
    27    24    25   ar
    28    25    26   ar
    29    26    27    1
    30    26    28   ar
    31    28    29   ar
    32     7     2   ar
    33    16    11   ar
    34    29    23   ar
    35    10     6   ar
    36    21    22    1
@<TRIPOS>MOLECULE
*****
 33 36 0 0 0
SMALL
GASTEIGER

@<TRIPOS>ATOM
      1 O         140.2662  137.3414  162.7366 O.3     1  UNL1       -0.4543
      2 C         141.0432  138.1202  163.7563 C.ar    1  UNL1        0.2311
      3 N         142.5071  138.3741  163.5502 N.ar    1  UNL1       -0.1892
      4 C         143.2841  139.1528  164.5699 C.ar    1  UNL1        0.2029
      5 N         142.5971  139.6776  165.7958 N.ar    1  UNL1       -0.2046
      6 C         141.1332  139.4237  166.0019 C.ar    1  UNL1        0.1715
      7 C         140.3563  138.6450  164.9821 C.ar    1  UNL1        0.1098
      8 C         138.9351  138.5531  165.4533 C.ar    1  UNL1        0.1283
      9 N         138.8338  139.2750  166.7642 N.ar    1  UNL1       -0.1619
     10 N         140.1923  139.8131  167.1032 N.ar    1  UNL1       -0.2111
     11 C         140.5475  140.6021  168.3285 C.ar    1  UNL1        0.0949
     12 C         140.7967  139.8967  169.6286 C.ar    1  UNL1        0.0201
     13 C         141.1519  140.6857  170.8539 C.ar    1  UNL1        0.0016
     14 C         141.2579  142.1801  170.7791 C.ar    1  UNL1        0.0010
     15 C         141.0088  142.8854  169.4790 C.ar    1  UNL1        0.0129
     16 C         140.6536  142.0964  168.2537 C.ar    1  UNL1        0.0753
     17 CL        140.4044  142.8019  166.9536 Cl      1  UNL1       -0.0807
     18 C         139.5258  138.0606  161.6482 C.3     1  UNL1        0.2455
     19 C         140.2200  138.3897  160.3598 C.2     1  UNL1        0.2675
     20 O         139.4275  138.8828  159.1856 O.2     1  UNL1       -0.2708
     21 N         141.7066  138.2257  160.2457 N.am    1  UNL1       -0.2664
     22 H         142.2268  137.9021  161.0164 H       1  UNL1        0.1564
     23 C         142.4008  138.5548  158.9574 C.ar    1  UNL1        0.1342
     24 C         142.4017  137.5637  157.8315 C.ar    1  UNL1        0.0342
     25 C         143.0958  137.8928  156.5432 C.ar    1  UNL1        0.0001
     26 C         143.7892  139.2130  156.3807 C.ar    1  UNL1       -0.0026
     27 C         144.4834  139.5421  155.0924 C.3     1  UNL1        0.0327
     28 C         143.7884  140.2041  157.5067 C.ar    1  UNL1        0.0960
     29 N         143.0941  139.8750  158.7950 N.ar    1  UNL1       -0.2293
     30 C         138.0914  138.4508  161.8482 C.3     1  UNL1        0.0852
     31 C         137.7497  139.8262  162.3396 C.3     1  UNL1        0.1465
     32 C         138.1683  142.1839  161.3315 C.3     1  UNL1        0.1741
     33 O         137.3871  140.9037  161.3610 O.3     1  UNL1       -0.3510
@<TRIPOS>BOND
     1    32    33    1
     2    33    31    1
     3    31    30    1
     4    18    30    1
     5    18     1    1
     6     1     2    1
     7     2     3   ar
     8     3     4   ar
     9     4     5   ar
    10     5     6   ar
    11     6     7   ar
    12     7     8   ar
    13     8     9   ar
    14     9    10   ar
    15    10    11    1
    16    11    12   ar
    17    12    13   ar
    18    13    14   ar
    19    14    15   ar
    20    15    16   ar
    21    16    17    1
    22    18    19    1
    23    19    20    2
    24    19    21   am
    25    21    23    1
    26    23    24   ar
    27    24    25   ar
    28    25    26   ar
    29    26    27    1
    30    26    28   ar
    31    28    29   ar
    32     7     2   ar
    33    16    11   ar
    34    29    23   ar
    35    10     6   ar
    36    21    22    1
