@<TRIPOS>MOLECULE
*****
 36 40 0 0 0
SMALL
GASTEIGER

@<TRIPOS>ATOM
      1 N         139.7359  145.3748  157.0627 N.am    1  UNL1       -0.2794
      2 C         140.7356  145.2889  158.1777 C.2     1  UNL1        0.2510
      3 O         142.0427  146.0170  158.0708 O.2     1  UNL1       -0.2698
      4 H         138.8780  144.8970  157.1330 H       1  UNL1        0.1552
      5 N         141.2758  144.1542  154.7958 N.pl3   1  UNL1       -0.3560
      6 C         140.8132  145.5784  154.7073 C.ar    1  UNL1        0.0552
      7 C         141.1206  146.3922  153.4854 C.ar    1  UNL1        0.0154
      8 C         140.6581  147.8163  153.3969 C.ar    1  UNL1        0.0018
      9 C         139.8881  148.4266  154.5303 C.ar    1  UNL1        0.0073
     10 C         139.5807  147.6128  155.7523 C.ar    1  UNL1        0.0164
     11 C         140.0433  146.1887  155.8408 C.ar    1  UNL1        0.0636
     12 H         141.7811  143.7536  154.0519 H       1  UNL1        0.1424
     13 H         141.0740  143.6200  155.5979 H       1  UNL1        0.1424
     14 C         139.4256  149.8508  154.4418 C.ar    1  UNL1        0.0295
     15 C         138.7277  150.6201  155.5240 C.ar    1  UNL1        0.0070
     16 C         138.4505  152.0004  155.0065 C.ar    1  UNL1        0.0075
     17 C         138.9771  152.0843  153.6044 C.ar    1  UNL1        0.0354
     18 S         139.5796  150.7557  153.2554 S.2     1  UNL1       -0.0864
     19 C         140.4282  144.4751  159.3996 C.ar    1  UNL1        0.0729
     20 C         139.4647  143.3285  159.3142 C.ar    1  UNL1        0.0090
     21 C         139.1573  142.5146  160.5361 C.ar    1  UNL1        0.0345
     22 C         139.8133  142.8473  161.8434 C.ar    1  UNL1        0.1317
     23 N         140.7767  143.9938  161.9288 N.ar    1  UNL1       -0.2290
     24 C         141.0842  144.8077  160.7069 C.ar    1  UNL1        0.1048
     25 N         139.5059  142.0334  163.0654 N.pl3   1  UNL1       -0.2930
     26 C         138.3977  141.0230  163.0342 C.3     1  UNL1        0.0958
     27 C         138.0902  140.2091  164.2561 C.3     1  UNL1        0.0634
     28 C         138.8910  140.4056  165.5092 C.3     1  UNL1        0.1588
     29 C         139.9992  141.4160  165.5403 C.3     1  UNL1        0.0634
     30 C         140.3067  142.2299  164.3184 C.3     1  UNL1        0.0958
     31 C         139.6020  140.4909  166.8272 C.3     1  UNL1        0.1327
     32 N         138.9690  139.5015  167.7603 N.am    1  UNL1       -0.2671
     33 C         137.8668  138.8047  167.0188 C.2     1  UNL1        0.4016
     34 O         136.9703  137.7368  167.5715 O.2     1  UNL1       -0.2264
     35 O         137.8186  139.3635  165.6276 O.3     1  UNL1       -0.4401
     36 H         139.2310  139.3382  168.6951 H       1  UNL1        0.1529
@<TRIPOS>BOND
     1     5     6    1
     2     6     7   ar
     3     7     8   ar
     4     8     9   ar
     5     9    14    1
     6    14    15   ar
     7    15    16   ar
     8    16    17   ar
     9    17    18   ar
    10     9    10   ar
    11    10    11   ar
    12    11     1    1
    13     1     2   am
    14     2     3    2
    15     2    19    1
    16    19    20   ar
    17    20    21   ar
    18    21    22   ar
    19    22    25    1
    20    25    26    1
    21    26    27    1
    22    27    28    1
    23    28    29    1
    24    29    30    1
    25    28    31    1
    26    31    32    1
    27    32    33   am
    28    33    34    2
    29    33    35    1
    30    22    23   ar
    31    23    24   ar
    32    11     6   ar
    33    24    19   ar
    34    18    14   ar
    35    30    25    1
    36    35    28    1
    37     5    12    1
    38     5    13    1
    39     1     4    1
    40    32    36    1
@<TRIPOS>MOLECULE
*****
 36 40 0 0 0
SMALL
GASTEIGER

@<TRIPOS>ATOM
      1 N         139.9528  144.7998  159.0654 N.am    1  UNL1       -0.2794
      2 C         141.2967  144.5351  159.6766 C.2     1  UNL1        0.2510
      3 O         142.5369  144.6520  158.8409 O.2     1  UNL1       -0.2698
      4 H         139.1388  144.7230  159.6139 H       1  UNL1        0.1552
      5 N         140.1630  142.6933  156.9397 N.pl3   1  UNL1       -0.3560
      6 C         139.9540  144.1282  156.5556 C.ar    1  UNL1        0.0552
      7 C         139.8501  144.5098  155.1087 C.ar    1  UNL1        0.0154
      8 C         139.6411  145.9447  154.7247 C.ar    1  UNL1        0.0018
      9 C         139.5360  146.9979  155.7876 C.ar    1  UNL1        0.0073
     10 C         139.6399  146.6163  157.2344 C.ar    1  UNL1        0.0164
     11 C         139.8489  145.1815  157.6185 C.ar    1  UNL1        0.0636
     12 H         140.2320  142.0020  156.2422 H       1  UNL1        0.1424
     13 H         140.2311  142.4429  157.8894 H       1  UNL1        0.1424
     14 C         139.3270  148.4328  155.4034 C.ar    1  UNL1        0.0295
     15 C         138.5645  149.4549  156.1933 C.ar    1  UNL1        0.0070
     16 C         138.6101  150.7512  155.4401 C.ar    1  UNL1        0.0075
     17 C         139.4008  150.5303  154.1846 C.ar    1  UNL1        0.0354
     18 S         139.8439  149.0975  154.1620 S.2     1  UNL1       -0.0864
     19 C         141.4006  144.1534  161.1235 C.ar    1  UNL1        0.0729
     20 C         141.3662  145.2144  162.1834 C.ar    1  UNL1        0.0090
     21 C         141.4700  144.8327  163.6303 C.ar    1  UNL1        0.0345
     22 C         141.6082  143.3901  164.0174 C.ar    1  UNL1        0.1317
     23 N         141.6426  142.3292  162.9576 N.ar    1  UNL1       -0.2290
     24 C         141.5388  142.7108  161.5106 C.ar    1  UNL1        0.1048
     25 N         141.7121  143.0085  165.4643 N.pl3   1  UNL1       -0.2930
     26 C         140.4843  142.9931  166.3259 C.3     1  UNL1        0.0958
     27 C         140.5882  142.6115  167.7728 C.3     1  UNL1        0.0634
     28 C         141.9198  142.2453  168.3581 C.3     1  UNL1        0.1588
     29 C         143.1476  142.2607  167.4966 C.3     1  UNL1        0.0634
     30 C         143.0437  142.6423  166.0497 C.3     1  UNL1        0.0958
     31 C         143.1763  141.8572  169.0796 C.3     1  UNL1        0.1327
     32 N         142.8185  141.5568  170.5051 N.am    1  UNL1       -0.2671
     33 C         141.3407  141.7593  170.6645 C.2     1  UNL1        0.4016
     34 O         140.5562  141.5696  171.9288 O.2     1  UNL1       -0.2264
     35 O         140.7853  142.1848  169.3377 O.3     1  UNL1       -0.4401
     36 H         143.4437  141.2760  171.2118 H       1  UNL1        0.1529
@<TRIPOS>BOND
     1     5     6    1
     2     6     7   ar
     3     7     8   ar
     4     8     9   ar
     5     9    14    1
     6    14    15   ar
     7    15    16   ar
     8    16    17   ar
     9    17    18   ar
    10     9    10   ar
    11    10    11   ar
    12    11     1    1
    13     1     2   am
    14     2     3    2
    15     2    19    1
    16    19    20   ar
    17    20    21   ar
    18    21    22   ar
    19    22    25    1
    20    25    26    1
    21    26    27    1
    22    27    28    1
    23    28    29    1
    24    29    30    1
    25    28    31    1
    26    31    32    1
    27    32    33   am
    28    33    34    2
    29    33    35    1
    30    22    23   ar
    31    23    24   ar
    32    11     6   ar
    33    24    19   ar
    34    18    14   ar
    35    30    25    1
    36    35    28    1
    37     5    12    1
    38     5    13    1
    39     1     4    1
    40    32    36    1
@<TRIPOS>MOLECULE
*****
 36 40 0 0 0
SMALL
GASTEIGER

@<TRIPOS>ATOM
      1 N         142.6629  138.1497  159.4399 N.am    1  UNL1       -0.2794
      2 C         141.3901  138.4337  160.1811 C.2     1  UNL1        0.2510
      3 O         140.0758  138.3875  159.4597 O.2     1  UNL1       -0.2698
      4 H         143.5255  138.1800  159.9134 H       1  UNL1        0.1552
      5 N         142.4591  140.3498  157.4106 N.pl3   1  UNL1       -0.3560
      6 C         142.5195  138.9195  156.9626 C.ar    1  UNL1        0.0552
      7 C         142.4779  138.5893  155.5000 C.ar    1  UNL1        0.0154
      8 C         142.5383  137.1590  155.0520 C.ar    1  UNL1        0.0018
      9 C         142.6401  136.0590  156.0667 C.ar    1  UNL1        0.0073
     10 C         142.6817  136.3892  157.5293 C.ar    1  UNL1        0.0164
     11 C         142.6213  137.8194  157.9772 C.ar    1  UNL1        0.0636
     12 H         142.3923  141.0718  156.7447 H       1  UNL1        0.1424
     13 H         142.4864  140.5665  158.3705 H       1  UNL1        0.1424
     14 C         142.7005  134.6287  155.6187 C.ar    1  UNL1        0.0295
     15 C         142.5716  134.1410  154.2060 C.ar    1  UNL1        0.0070
     16 C         142.6917  132.6459  154.2190 C.ar    1  UNL1        0.0075
     17 C         142.8949  132.2095  155.6397 C.ar    1  UNL1        0.0354
     18 S         142.9003  133.4349  156.5047 S.2     1  UNL1       -0.0864
     19 C         141.4317  138.7639  161.6436 C.ar    1  UNL1        0.0729
     20 C         141.6158  137.6709  162.6544 C.ar    1  UNL1        0.0090
     21 C         141.6574  138.0012  164.1170 C.ar    1  UNL1        0.0345
     22 C         141.5149  139.4244  164.5689 C.ar    1  UNL1        0.1317
     23 N         141.3308  140.5173  163.5582 N.ar    1  UNL1       -0.2290
     24 C         141.2892  140.1871  162.0955 C.ar    1  UNL1        0.1048
     25 N         141.5565  139.7546  166.0315 N.pl3   1  UNL1       -0.2930
     26 C         140.5413  140.6900  166.6184 C.3     1  UNL1        0.0958
     27 C         140.5830  141.0202  168.0810 C.3     1  UNL1        0.0634
     28 C         141.6397  140.4149  168.9567 C.3     1  UNL1        0.1588
     29 C         142.6548  139.4795  168.3699 C.3     1  UNL1        0.0634
     30 C         142.6132  139.1493  166.9073 C.3     1  UNL1        0.0958
     31 C         142.6319  139.8893  169.9513 C.3     1  UNL1        0.1327
     32 N         142.3019  140.4782  171.2909 N.am    1  UNL1       -0.2671
     33 C         141.1056  141.3678  171.1241 C.2     1  UNL1        0.4016
     34 O         140.4362  142.1577  172.2093 O.2     1  UNL1       -0.2264
     35 O         140.6964  141.3286  169.6816 O.3     1  UNL1       -0.4401
     36 H         142.7854  140.3104  172.1319 H       1  UNL1        0.1529
@<TRIPOS>BOND
     1     5     6    1
     2     6     7   ar
     3     7     8   ar
     4     8     9   ar
     5     9    14    1
     6    14    15   ar
     7    15    16   ar
     8    16    17   ar
     9    17    18   ar
    10     9    10   ar
    11    10    11   ar
    12    11     1    1
    13     1     2   am
    14     2     3    2
    15     2    19    1
    16    19    20   ar
    17    20    21   ar
    18    21    22   ar
    19    22    25    1
    20    25    26    1
    21    26    27    1
    22    27    28    1
    23    28    29    1
    24    29    30    1
    25    28    31    1
    26    31    32    1
    27    32    33   am
    28    33    34    2
    29    33    35    1
    30    22    23   ar
    31    23    24   ar
    32    11     6   ar
    33    24    19   ar
    34    18    14   ar
    35    30    25    1
    36    35    28    1
    37     5    12    1
    38     5    13    1
    39     1     4    1
    40    32    36    1
@<TRIPOS>MOLECULE
*****
 36 40 0 0 0
SMALL
GASTEIGER

@<TRIPOS>ATOM
      1 N         144.4140  142.3112  158.9841 N.am    1  UNL1       -0.2794
      2 C         144.0917  141.0025  159.6424 C.2     1  UNL1        0.2510
      3 O         144.0357  139.7458  158.8254 O.2     1  UNL1       -0.2698
      4 H         144.4507  143.1361  159.5204 H       1  UNL1        0.1552
      5 N         142.1465  142.7280  157.0645 N.pl3   1  UNL1       -0.3560
      6 C         143.5465  142.5717  156.5490 C.ar    1  UNL1        0.0552
      7 C         143.8126  142.6237  155.0738 C.ar    1  UNL1        0.0154
      8 C         145.2126  142.4674  154.5583 C.ar    1  UNL1        0.0018
      9 C         146.3463  142.2590  155.5181 C.ar    1  UNL1        0.0073
     10 C         146.0801  142.2070  156.9934 C.ar    1  UNL1        0.0164
     11 C         144.6802  142.3633  157.5088 C.ar    1  UNL1        0.0636
     12 H         141.4023  142.8647  156.4346 H       1  UNL1        0.1424
     13 H         141.9718  142.6938  158.0328 H       1  UNL1        0.1424
     14 C         147.7463  142.1027  155.0026 C.ar    1  UNL1        0.0295
     15 C         148.9688  141.8494  155.8340 C.ar    1  UNL1        0.0070
     16 C         150.1476  141.7624  154.9104 C.ar    1  UNL1        0.0075
     17 C         149.6535  141.9619  153.5081 C.ar    1  UNL1        0.0354
     18 S         148.1694  142.1722  153.5652 S.2     1  UNL1       -0.0864
     19 C         143.8255  140.9505  161.1176 C.ar    1  UNL1        0.0729
     20 C         144.8253  141.5188  162.0807 C.ar    1  UNL1        0.0090
     21 C         144.5591  141.4669  163.5559 C.ar    1  UNL1        0.0345
     22 C         143.2931  140.8466  164.0682 C.ar    1  UNL1        0.1317
     23 N         142.2933  140.2783  163.1052 N.ar    1  UNL1       -0.2290
     24 C         142.5595  140.3303  161.6299 C.ar    1  UNL1        0.1048
     25 N         143.0269  140.7946  165.5435 N.pl3   1  UNL1       -0.2930
     26 C         142.8036  142.0642  166.3105 C.3     1  UNL1        0.0958
     27 C         142.5374  142.0122  167.7858 C.3     1  UNL1        0.0634
     28 C         142.4945  140.6906  168.4940 C.3     1  UNL1        0.1588
     29 C         142.7179  139.4210  167.7270 C.3     1  UNL1        0.0634
     30 C         142.9841  139.4730  166.2518 C.3     1  UNL1        0.0958
     31 C         142.4224  139.4497  169.3337 C.3     1  UNL1        0.1327
     32 N         142.1370  139.8626  170.7474 N.am    1  UNL1       -0.2671
     33 C         142.0328  141.3586  170.7813 C.2     1  UNL1        0.4016
     34 O         141.7562  142.1958  171.9946 O.2     1  UNL1       -0.2264
     35 O         142.2538  141.8703  169.3887 O.3     1  UNL1       -0.4401
     36 H         142.0359  139.2578  171.5176 H       1  UNL1        0.1529
@<TRIPOS>BOND
     1     5     6    1
     2     6     7   ar
     3     7     8   ar
     4     8     9   ar
     5     9    14    1
     6    14    15   ar
     7    15    16   ar
     8    16    17   ar
     9    17    18   ar
    10     9    10   ar
    11    10    11   ar
    12    11     1    1
    13     1     2   am
    14     2     3    2
    15     2    19    1
    16    19    20   ar
    17    20    21   ar
    18    21    22   ar
    19    22    25    1
    20    25    26    1
    21    26    27    1
    22    27    28    1
    23    28    29    1
    24    29    30    1
    25    28    31    1
    26    31    32    1
    27    32    33   am
    28    33    34    2
    29    33    35    1
    30    22    23   ar
    31    23    24   ar
    32    11     6   ar
    33    24    19   ar
    34    18    14   ar
    35    30    25    1
    36    35    28    1
    37     5    12    1
    38     5    13    1
    39     1     4    1
    40    32    36    1
@<TRIPOS>MOLECULE
*****
 36 40 0 0 0
SMALL
GASTEIGER

@<TRIPOS>ATOM
      1 N         142.2516  137.9305  158.9823 N.am    1  UNL1       -0.2794
      2 C         143.2407  138.9275  159.5092 C.2     1  UNL1        0.2510
      3 O         144.2716  139.5174  158.5931 O.2     1  UNL1       -0.2698
      4 H         141.5750  137.5433  159.5835 H       1  UNL1        0.1552
      5 N         141.6748  139.9472  156.8375 N.pl3   1  UNL1       -0.3560
      6 C         142.0051  138.5317  156.4667 C.ar    1  UNL1        0.0552
      7 C         142.0469  138.1247  155.0237 C.ar    1  UNL1        0.0154
      8 C         142.3771  136.7092  154.6530 C.ar    1  UNL1        0.0018
      9 C         142.6655  135.7009  155.7253 C.ar    1  UNL1        0.0073
     10 C         142.6237  136.1079  157.1684 C.ar    1  UNL1        0.0164
     11 C         142.2935  137.5233  157.5391 C.ar    1  UNL1        0.0636
     12 H         141.4855  140.6091  156.1337 H       1  UNL1        0.1424
     13 H         141.6474  140.2144  157.7847 H       1  UNL1        0.1424
     14 C         142.9957  134.2854  155.3546 C.ar    1  UNL1        0.0295
     15 C         143.9155  133.3689  156.1056 C.ar    1  UNL1        0.0070
     16 C         143.9524  132.0550  155.3829 C.ar    1  UNL1        0.0075
     17 C         143.0554  132.1594  154.1851 C.ar    1  UNL1        0.0354
     18 S         142.4641  133.5379  154.1677 S.2     1  UNL1       -0.0864
     19 C         143.1988  139.3345  160.9523 C.ar    1  UNL1        0.0729
     20 C         142.8479  138.3263  162.0061 C.ar    1  UNL1        0.0090
     21 C         142.8060  138.7334  163.4492 C.ar    1  UNL1        0.0345
     22 C         143.1151  140.1486  163.8385 C.ar    1  UNL1        0.1317
     23 N         143.4660  141.1568  162.7848 N.ar    1  UNL1       -0.2290
     24 C         143.5079  140.7498  161.3416 C.ar    1  UNL1        0.1048
     25 N         143.0732  140.5557  165.2817 N.pl3   1  UNL1       -0.2930
     26 C         143.3263  141.9833  165.6659 C.3     1  UNL1        0.0958
     27 C         143.2845  142.3903  167.1090 C.3     1  UNL1        0.0634
     28 C         142.9895  141.3696  168.1679 C.3     1  UNL1        0.1588
     29 C         142.7363  139.9420  167.7836 C.3     1  UNL1        0.0634
     30 C         142.7782  139.5350  166.3405 C.3     1  UNL1        0.0958
     31 C         142.7088  140.4653  169.3312 C.3     1  UNL1        0.1327
     32 N         142.7668  141.2892  170.5834 N.am    1  UNL1       -0.2671
     33 C         143.0832  142.7028  170.1939 C.2     1  UNL1        0.4016
     34 O         143.2354  143.8629  171.1324 O.2     1  UNL1       -0.2264
     35 O         143.2209  142.7525  168.7011 O.3     1  UNL1       -0.4401
     36 H         142.6224  140.9600  171.5000 H       1  UNL1        0.1529
@<TRIPOS>BOND
     1     5     6    1
     2     6     7   ar
     3     7     8   ar
     4     8     9   ar
     5     9    14    1
     6    14    15   ar
     7    15    16   ar
     8    16    17   ar
     9    17    18   ar
    10     9    10   ar
    11    10    11   ar
    12    11     1    1
    13     1     2   am
    14     2     3    2
    15     2    19    1
    16    19    20   ar
    17    20    21   ar
    18    21    22   ar
    19    22    25    1
    20    25    26    1
    21    26    27    1
    22    27    28    1
    23    28    29    1
    24    29    30    1
    25    28    31    1
    26    31    32    1
    27    32    33   am
    28    33    34    2
    29    33    35    1
    30    22    23   ar
    31    23    24   ar
    32    11     6   ar
    33    24    19   ar
    34    18    14   ar
    35    30    25    1
    36    35    28    1
    37     5    12    1
    38     5    13    1
    39     1     4    1
    40    32    36    1
@<TRIPOS>MOLECULE
*****
 36 40 0 0 0
SMALL
GASTEIGER

@<TRIPOS>ATOM
      1 N         140.4427  144.5802  159.0543 N.am    1  UNL1       -0.2794
      2 C         139.4680  143.6031  159.6418 C.2     1  UNL1        0.2510
      3 O         138.3900  143.0109  158.7832 O.2     1  UNL1       -0.2698
      4 H         141.1503  144.9688  159.6178 H       1  UNL1        0.1552
      5 N         140.9644  142.5395  156.9180 N.pl3   1  UNL1       -0.3560
      6 C         140.6003  143.9447  156.5400 C.ar    1  UNL1        0.0552
      7 C         140.4971  144.3296  155.0939 C.ar    1  UNL1        0.0154
      8 C         140.1330  145.7347  154.7160 C.ar    1  UNL1        0.0018
      9 C         139.8722  146.7551  155.7841 C.ar    1  UNL1        0.0073
     10 C         139.9755  146.3702  157.2302 C.ar    1  UNL1        0.0164
     11 C         140.3395  144.9651  157.6081 C.ar    1  UNL1        0.0636
     12 H         141.1355  141.8698  156.2170 H       1  UNL1        0.1424
     13 H         141.0321  142.2869  157.8672 H       1  UNL1        0.1424
     14 C         139.5082  148.1603  155.4060 C.ar    1  UNL1        0.0295
     15 C         138.6496  149.0943  156.2063 C.ar    1  UNL1        0.0070
     16 C         138.5496  150.3895  155.4562 C.ar    1  UNL1        0.0075
     17 C         139.3464  150.2559  154.1923 C.ar    1  UNL1        0.0354
     18 S         139.9388  148.8782  154.1614 S.2     1  UNL1       -0.0864
     19 C         139.5713  143.2183  161.0878 C.ar    1  UNL1        0.0729
     20 C         138.4492  143.5373  162.0309 C.ar    1  UNL1        0.0090
     21 C         138.5525  143.1525  163.4770 C.ar    1  UNL1        0.0345
     22 C         139.7778  142.4486  163.9801 C.ar    1  UNL1        0.1317
     23 N         140.8998  142.1295  163.0371 N.ar    1  UNL1       -0.2290
     24 C         140.7966  142.5144  161.5910 C.ar    1  UNL1        0.1048
     25 N         139.8811  142.0637  165.4262 N.pl3   1  UNL1       -0.2930
     26 C         140.3265  143.0742  166.4413 C.3     1  UNL1        0.0958
     27 C         140.4297  142.6894  167.8874 C.3     1  UNL1        0.0634
     28 C         140.0875  141.2940  168.3184 C.3     1  UNL1        0.1588
     29 C         139.6421  140.2835  167.3033 C.3     1  UNL1        0.0634
     30 C         139.5388  140.6683  165.8573 C.3     1  UNL1        0.0958
     31 C         139.7803  139.9440  168.8956 C.3     1  UNL1        0.1327
     32 N         140.0190  140.0072  170.3752 N.am    1  UNL1       -0.2671
     33 C         140.4738  141.3963  170.7124 C.2     1  UNL1        0.4016
     34 O         140.8246  141.9014  172.0804 O.2     1  UNL1       -0.2264
     35 O         140.5161  142.1915  169.4413 O.3     1  UNL1       -0.4401
     36 H         139.8984  139.2670  171.0130 H       1  UNL1        0.1529
@<TRIPOS>BOND
     1     5     6    1
     2     6     7   ar
     3     7     8   ar
     4     8     9   ar
     5     9    14    1
     6    14    15   ar
     7    15    16   ar
     8    16    17   ar
     9    17    18   ar
    10     9    10   ar
    11    10    11   ar
    12    11     1    1
    13     1     2   am
    14     2     3    2
    15     2    19    1
    16    19    20   ar
    17    20    21   ar
    18    21    22   ar
    19    22    25    1
    20    25    26    1
    21    26    27    1
    22    27    28    1
    23    28    29    1
    24    29    30    1
    25    28    31    1
    26    31    32    1
    27    32    33   am
    28    33    34    2
    29    33    35    1
    30    22    23   ar
    31    23    24   ar
    32    11     6   ar
    33    24    19   ar
    34    18    14   ar
    35    30    25    1
    36    35    28    1
    37     5    12    1
    38     5    13    1
    39     1     4    1
    40    32    36    1
@<TRIPOS>MOLECULE
*****
 36 40 0 0 0
SMALL
GASTEIGER

@<TRIPOS>ATOM
      1 N         141.0164  140.5312  163.2932 N.am    1  UNL1       -0.2794
      2 C         141.8787  139.5142  162.6061 C.2     1  UNL1        0.2510
      3 O         142.0120  138.1342  163.1787 O.2     1  UNL1       -0.2698
      4 H         140.9289  141.4369  162.9175 H       1  UNL1        0.1552
      5 N         138.1914  139.5309  163.1561 N.pl3   1  UNL1       -0.3560
      6 C         138.8748  139.6680  164.4844 C.ar    1  UNL1        0.0552
      7 C         138.1458  139.3050  165.7440 C.ar    1  UNL1        0.0154
      8 C         138.8292  139.4421  167.0722 C.ar    1  UNL1        0.0018
      9 C         140.2417  139.9423  167.1407 C.ar    1  UNL1        0.0073
     10 C         140.9708  140.3053  165.8811 C.ar    1  UNL1        0.0164
     11 C         140.2873  140.1682  164.5529 C.ar    1  UNL1        0.0636
     12 H         137.2643  139.2026  163.1111 H       1  UNL1        0.1424
     13 H         138.6699  139.7692  162.3294 H       1  UNL1        0.1424
     14 C         140.9252  140.0794  168.4690 C.ar    1  UNL1        0.0295
     15 C         142.3113  139.6113  168.7998 C.ar    1  UNL1        0.0070
     16 C         142.5852  139.9513  170.2348 C.ar    1  UNL1        0.0075
     17 C         141.3683  140.6296  170.7910 C.ar    1  UNL1        0.0354
     18 S         140.3424  140.7087  169.6996 S.2     1  UNL1       -0.0864
     19 C         142.6077  139.8773  161.3465 C.ar    1  UNL1        0.0729
     20 C         142.9620  141.3086  161.0710 C.ar    1  UNL1        0.0090
     21 C         143.6910  141.6716  159.8113 C.ar    1  UNL1        0.0345
     22 C         144.0657  140.6034  158.8272 C.ar    1  UNL1        0.1317
     23 N         143.7115  139.1722  159.1027 N.ar    1  UNL1       -0.2290
     24 C         142.9824  138.8091  160.3624 C.ar    1  UNL1        0.1048
     25 N         144.7948  140.9666  157.5675 N.pl3   1  UNL1       -0.2930
     26 C         145.7282  142.1406  157.5531 C.3     1  UNL1        0.0958
     27 C         146.4572  142.5036  156.2934 C.3     1  UNL1        0.0634
     28 C         146.2527  141.6927  155.0482 C.3     1  UNL1        0.1588
     29 C         145.3193  140.5186  155.0627 C.3     1  UNL1        0.0634
     30 C         144.5903  140.1556  156.3223 C.3     1  UNL1        0.0958
     31 C         146.1497  140.9789  153.7330 C.3     1  UNL1        0.1327
     32 N         147.0461  141.6784  152.7545 N.am    1  UNL1       -0.2671
     33 C         147.7031  142.8245  153.4651 C.2     1  UNL1        0.4016
     34 O         148.6790  143.7918  152.8637 O.2     1  UNL1       -0.2264
     35 O         147.2128  142.8333  154.8826 O.3     1  UNL1       -0.4401
     36 H         147.1797  141.4290  151.8115 H       1  UNL1        0.1529
@<TRIPOS>BOND
     1     5     6    1
     2     6     7   ar
     3     7     8   ar
     4     8     9   ar
     5     9    14    1
     6    14    15   ar
     7    15    16   ar
     8    16    17   ar
     9    17    18   ar
    10     9    10   ar
    11    10    11   ar
    12    11     1    1
    13     1     2   am
    14     2     3    2
    15     2    19    1
    16    19    20   ar
    17    20    21   ar
    18    21    22   ar
    19    22    25    1
    20    25    26    1
    21    26    27    1
    22    27    28    1
    23    28    29    1
    24    29    30    1
    25    28    31    1
    26    31    32    1
    27    32    33   am
    28    33    34    2
    29    33    35    1
    30    22    23   ar
    31    23    24   ar
    32    11     6   ar
    33    24    19   ar
    34    18    14   ar
    35    30    25    1
    36    35    28    1
    37     5    12    1
    38     5    13    1
    39     1     4    1
    40    32    36    1
@<TRIPOS>MOLECULE
*****
 36 40 0 0 0
SMALL
GASTEIGER

@<TRIPOS>ATOM
      1 N         142.6061  141.3308  163.5393 N.am    1  UNL1       -0.2794
      2 C         141.5697  140.9974  162.5075 C.2     1  UNL1        0.2510
      3 O         140.6920  139.7944  162.6875 O.2     1  UNL1       -0.2698
      4 H         143.1822  142.1204  163.4211 H       1  UNL1        0.1552
      5 N         144.7351  139.2181  163.6012 N.pl3   1  UNL1       -0.3560
      6 C         143.8293  139.4049  164.7822 C.ar    1  UNL1        0.0552
      7 C         143.9879  138.5354  165.9941 C.ar    1  UNL1        0.0154
      8 C         143.0821  138.7221  167.1750 C.ar    1  UNL1        0.0018
      9 C         142.0176  139.7785  167.1440 C.ar    1  UNL1        0.0073
     10 C         141.8589  140.6480  165.9322 C.ar    1  UNL1        0.0164
     11 C         142.7647  140.4612  164.7513 C.ar    1  UNL1        0.0636
     12 H         145.4338  138.5248  163.6215 H       1  UNL1        0.1424
     13 H         144.6309  139.7889  162.8058 H       1  UNL1        0.1424
     14 C         141.1118  139.9653  168.3250 C.ar    1  UNL1        0.0295
     15 C         139.6353  140.2242  168.2714 C.ar    1  UNL1        0.0070
     16 C         139.1344  140.3449  169.6802 C.ar    1  UNL1        0.0075
     17 C         140.3014  140.1604  170.6045 C.ar    1  UNL1        0.0354
     18 S         141.5235  139.9258  169.7669 S.2     1  UNL1       -0.0864
     19 C         141.4111  141.8670  161.2956 C.ar    1  UNL1        0.0729
     20 C         141.4153  143.3602  161.4382 C.ar    1  UNL1        0.0090
     21 C         141.2567  144.2298  160.2263 C.ar    1  UNL1        0.0345
     22 C         141.0938  143.6062  158.8719 C.ar    1  UNL1        0.1317
     23 N         141.0896  142.1130  158.7292 N.ar    1  UNL1       -0.2290
     24 C         141.2482  141.2433  159.9412 C.ar    1  UNL1        0.1048
     25 N         140.9352  144.4758  157.6599 N.pl3   1  UNL1       -0.2930
     26 C         140.2920  145.8251  157.7841 C.3     1  UNL1        0.0958
     27 C         140.1334  146.6947  156.5722 C.3     1  UNL1        0.0634
     28 C         140.6180  146.2149  155.2362 C.3     1  UNL1        0.1588
     29 C         141.2612  144.8656  155.1121 C.3     1  UNL1        0.0634
     30 C         141.4198  143.9960  156.3239 C.3     1  UNL1        0.0958
     31 C         141.0516  145.8717  153.8419 C.3     1  UNL1        0.1327
     32 N         140.6995  147.0251  152.9497 N.am    1  UNL1       -0.2671
     33 C         140.0483  148.0812  153.7928 C.2     1  UNL1        0.4016
     34 O         139.5372  149.4054  153.3079 O.2     1  UNL1       -0.2264
     35 O         139.9979  147.5805  155.2059 O.3     1  UNL1       -0.4401
     36 H         140.8665  147.0794  151.9810 H       1  UNL1        0.1529
@<TRIPOS>BOND
     1     5     6    1
     2     6     7   ar
     3     7     8   ar
     4     8     9   ar
     5     9    14    1
     6    14    15   ar
     7    15    16   ar
     8    16    17   ar
     9    17    18   ar
    10     9    10   ar
    11    10    11   ar
    12    11     1    1
    13     1     2   am
    14     2     3    2
    15     2    19    1
    16    19    20   ar
    17    20    21   ar
    18    21    22   ar
    19    22    25    1
    20    25    26    1
    21    26    27    1
    22    27    28    1
    23    28    29    1
    24    29    30    1
    25    28    31    1
    26    31    32    1
    27    32    33   am
    28    33    34    2
    29    33    35    1
    30    22    23   ar
    31    23    24   ar
    32    11     6   ar
    33    24    19   ar
    34    18    14   ar
    35    30    25    1
    36    35    28    1
    37     5    12    1
    38     5    13    1
    39     1     4    1
    40    32    36    1
@<TRIPOS>MOLECULE
*****
 36 40 0 0 0
SMALL
GASTEIGER

@<TRIPOS>ATOM
      1 N         141.7817  141.3450  159.1349 N.am    1  UNL1       -0.2794
      2 C         140.8519  140.4547  158.3649 C.2     1  UNL1        0.2510
      3 O         139.4451  140.8972  158.0910 O.2     1  UNL1       -0.2698
      4 H         142.7050  141.0546  159.3146 H       1  UNL1        0.1552
      5 N         142.2586  143.8133  157.4978 N.pl3   1  UNL1       -0.3560
      6 C         141.5431  143.9120  158.8125 C.ar    1  UNL1        0.0552
      7 C         141.0660  145.2447  159.3085 C.ar    1  UNL1        0.0154
      8 C         140.3505  145.3433  160.6232 C.ar    1  UNL1        0.0018
      9 C         140.1121  144.1092  161.4417 C.ar    1  UNL1        0.0073
     10 C         140.5891  142.7764  160.9457 C.ar    1  UNL1        0.0164
     11 C         141.3046  142.6778  159.6310 C.ar    1  UNL1        0.0636
     12 H         142.4151  144.6233  156.9605 H       1  UNL1        0.1424
     13 H         142.5717  142.9385  157.1722 H       1  UNL1        0.1424
     14 C         139.3966  144.2079  162.7564 C.ar    1  UNL1        0.0295
     15 C         139.8992  144.9094  163.9833 C.ar    1  UNL1        0.0070
     16 C         138.8661  144.7574  165.0602 C.ar    1  UNL1        0.0075
     17 C         137.7249  143.9620  164.4988 C.ar    1  UNL1        0.0354
     18 S         138.0528  143.6224  163.0750 S.2     1  UNL1       -0.0864
     19 C         141.3290  139.1220  157.8688 C.ar    1  UNL1        0.0729
     20 C         140.4578  138.3032  156.9628 C.ar    1  UNL1        0.0090
     21 C         140.9349  136.9705  156.4667 C.ar    1  UNL1        0.0345
     22 C         142.2832  136.4565  156.8765 C.ar    1  UNL1        0.1317
     23 N         143.1544  137.2752  157.7825 N.ar    1  UNL1       -0.2290
     24 C         142.6773  138.6080  158.2786 C.ar    1  UNL1        0.1048
     25 N         142.7603  135.1237  156.3804 N.pl3   1  UNL1       -0.2930
     26 C         142.3039  134.6130  155.0459 C.3     1  UNL1        0.0958
     27 C         142.7810  133.2802  154.5499 C.3     1  UNL1        0.0634
     28 C         143.7145  132.4582  155.3882 C.3     1  UNL1        0.1588
     29 C         144.1708  132.9689  156.7227 C.3     1  UNL1        0.0634
     30 C         143.6938  134.3016  157.2188 C.3     1  UNL1        0.0958
     31 C         144.6441  131.5294  156.1115 C.3     1  UNL1        0.1327
     32 N         144.8499  130.3173  155.2520 N.am    1  UNL1       -0.2671
     33 C         144.0474  130.4971  153.9975 C.2     1  UNL1        0.4016
     34 O         143.9617  129.5245  152.8588 O.2     1  UNL1       -0.2264
     35 O         143.3457  131.8201  154.0817 O.3     1  UNL1       -0.4401
     36 H         145.4127  129.5403  155.4726 H       1  UNL1        0.1529
@<TRIPOS>BOND
     1     5     6    1
     2     6     7   ar
     3     7     8   ar
     4     8     9   ar
     5     9    14    1
     6    14    15   ar
     7    15    16   ar
     8    16    17   ar
     9    17    18   ar
    10     9    10   ar
    11    10    11   ar
    12    11     1    1
    13     1     2   am
    14     2     3    2
    15     2    19    1
    16    19    20   ar
    17    20    21   ar
    18    21    22   ar
    19    22    25    1
    20    25    26    1
    21    26    27    1
    22    27    28    1
    23    28    29    1
    24    29    30    1
    25    28    31    1
    26    31    32    1
    27    32    33   am
    28    33    34    2
    29    33    35    1
    30    22    23   ar
    31    23    24   ar
    32    11     6   ar
    33    24    19   ar
    34    18    14   ar
    35    30    25    1
    36    35    28    1
    37     5    12    1
    38     5    13    1
    39     1     4    1
    40    32    36    1
