@<TRIPOS>MOLECULE
*****
 24 27 0 0 0
SMALL
GASTEIGER

@<TRIPOS>ATOM
      1 C         141.2590  142.0971  166.1692 C.3     1  UNL1        0.0991
      2 C         142.5182  142.9712  170.4001 C.ar    1  UNL1       -0.0000
      3 C         141.1129  143.2583  169.9613 C.ar    1  UNL1       -0.0003
      4 C         140.6931  142.9670  168.5510 C.ar    1  UNL1       -0.0029
      5 C         141.6787  142.3885  167.5795 C.ar    1  UNL1       -0.0061
      6 C         143.0841  142.1013  168.0183 C.ar    1  UNL1       -0.0029
      7 C         143.5038  142.3927  169.4286 C.ar    1  UNL1       -0.0003
      8 N         140.6928  143.1915  165.3139 N.3     1  UNL1       -0.2690
      9 C         141.4612  144.0397  164.3442 C.3     1  UNL1        0.0724
     10 C         140.5021  145.0023  163.7091 C.3     1  UNL1        0.0188
     11 C         139.1408  144.7492  164.2862 C.3     1  UNL1        0.0188
     12 C         139.2587  143.6300  165.2781 C.3     1  UNL1        0.0724
     13 C         141.4055  140.7113  165.6142 C.3     1  UNL1        0.0991
     14 C         140.2963  139.7154  165.7810 C.ar    1  UNL1       -0.0061
     15 C         139.2639  139.9148  166.8508 C.ar    1  UNL1       -0.0029
     16 C         138.1547  138.9190  167.0176 C.ar    1  UNL1       -0.0003
     17 C         138.0778  137.7237  166.1145 C.ar    1  UNL1       -0.0000
     18 C         139.1101  137.5244  165.0447 C.ar    1  UNL1       -0.0003
     19 C         140.2194  138.5202  164.8780 C.ar    1  UNL1       -0.0029
     20 N         142.6613  140.3213  164.8924 N.3     1  UNL1       -0.2690
     21 C         143.0485  140.7429  163.5060 C.3     1  UNL1        0.0724
     22 C         144.3769  140.1234  163.1871 C.3     1  UNL1        0.0188
     23 C         144.8107  139.3189  164.3765 C.3     1  UNL1        0.0188
     24 C         143.7504  139.4412  165.4304 C.3     1  UNL1        0.0724
@<TRIPOS>BOND
     1     2     3   ar
     2     3     4   ar
     3     4     5   ar
     4     5     1    1
     5     1    13    1
     6    13    14    1
     7    14    15   ar
     8    15    16   ar
     9    16    17   ar
    10    17    18   ar
    11    18    19   ar
    12    13    20    1
    13    20    21    1
    14    21    22    1
    15    22    23    1
    16    23    24    1
    17     1     8    1
    18     8     9    1
    19     9    10    1
    20    10    11    1
    21    11    12    1
    22     5     6   ar
    23     6     7   ar
    24     7     2   ar
    25    19    14   ar
    26    24    20    1
    27    12     8    1
@<TRIPOS>MOLECULE
*****
 24 27 0 0 0
SMALL
GASTEIGER

@<TRIPOS>ATOM
      1 C         141.3508  140.6780  165.6274 C.3     1  UNL1        0.0991
      2 C         138.0500  137.6617  166.1347 C.ar    1  UNL1       -0.0000
      3 C         139.0832  137.4700  165.0644 C.ar    1  UNL1       -0.0003
      4 C         140.1834  138.4754  164.8952 C.ar    1  UNL1       -0.0029
      5 C         140.2505  139.6726  165.7965 C.ar    1  UNL1       -0.0061
      6 C         139.2174  139.8643  166.8669 C.ar    1  UNL1       -0.0029
      7 C         138.1171  138.8588  167.0360 C.ar    1  UNL1       -0.0003
      8 N         142.6183  140.2916  164.9247 N.3     1  UNL1       -0.2690
      9 C         143.0506  140.7578  163.5660 C.3     1  UNL1        0.0724
     10 C         144.3757  140.1255  163.2588 C.3     1  UNL1        0.0188
     11 C         144.7624  139.2685  164.4276 C.3     1  UNL1        0.0188
     12 C         143.6763  139.3711  165.4572 C.3     1  UNL1        0.0724
     13 C         141.1834  142.0698  166.1610 C.3     1  UNL1        0.0991
     14 C         141.6216  142.3951  167.5582 C.ar    1  UNL1       -0.0061
     15 C         143.0291  142.1066  167.9891 C.ar    1  UNL1       -0.0029
     16 C         143.4673  142.4320  169.3863 C.ar    1  UNL1       -0.0003
     17 C         142.4979  143.0458  170.3526 C.ar    1  UNL1       -0.0000
     18 C         141.0904  143.3342  169.9216 C.ar    1  UNL1       -0.0003
     19 C         140.6523  143.0089  168.5244 C.ar    1  UNL1       -0.0029
     20 N         140.5778  143.1364  165.2974 N.3     1  UNL1       -0.2690
     21 C         141.3301  144.0966  164.4244 C.3     1  UNL1        0.0724
     22 C         140.3309  144.9837  163.7427 C.3     1  UNL1        0.0188
     23 C         138.9610  144.5716  164.1943 C.3     1  UNL1        0.0188
     24 C         139.1137  143.4300  165.1551 C.3     1  UNL1        0.0724
@<TRIPOS>BOND
     1     2     3   ar
     2     3     4   ar
     3     4     5   ar
     4     5     1    1
     5     1    13    1
     6    13    14    1
     7    14    15   ar
     8    15    16   ar
     9    16    17   ar
    10    17    18   ar
    11    18    19   ar
    12    13    20    1
    13    20    21    1
    14    21    22    1
    15    22    23    1
    16    23    24    1
    17     1     8    1
    18     8     9    1
    19     9    10    1
    20    10    11    1
    21    11    12    1
    22     5     6   ar
    23     6     7   ar
    24     7     2   ar
    25    19    14   ar
    26    24    20    1
    27    12     8    1
@<TRIPOS>MOLECULE
*****
 24 27 0 0 0
SMALL
GASTEIGER

@<TRIPOS>ATOM
      1 C         141.7080  141.6007  166.2037 C.3     1  UNL1        0.0991
      2 C         142.1503  143.1915  170.3898 C.ar    1  UNL1       -0.0000
      3 C         140.8339  143.3043  169.6798 C.ar    1  UNL1       -0.0003
      4 C         140.6864  142.7740  168.2844 C.ar    1  UNL1       -0.0029
      5 C         141.8554  142.1309  167.5991 C.ar    1  UNL1       -0.0061
      6 C         143.1719  142.0181  168.3091 C.ar    1  UNL1       -0.0029
      7 C         143.3194  142.5484  169.7044 C.ar    1  UNL1       -0.0003
      8 N         142.9259  141.2402  165.4057 N.3     1  UNL1       -0.2690
      9 C         143.7813  142.1926  164.6238 C.3     1  UNL1        0.0724
     10 C         144.8863  141.4051  163.9844 C.3     1  UNL1        0.0188
     11 C         144.7139  139.9661  164.3710 C.3     1  UNL1        0.0188
     12 C         143.5022  139.8642  165.2495 C.3     1  UNL1        0.0724
     13 C         140.3426  141.4308  165.6063 C.3     1  UNL1        0.0991
     14 C         139.6788  140.0858  165.6227 C.ar    1  UNL1       -0.0061
     15 C         139.9943  139.0806  164.5550 C.ar    1  UNL1       -0.0029
     16 C         139.3305  137.7356  164.5714 C.ar    1  UNL1       -0.0003
     17 C         138.3511  137.3958  165.6556 C.ar    1  UNL1       -0.0000
     18 C         138.0356  138.4010  166.7233 C.ar    1  UNL1       -0.0003
     19 C         138.6995  139.7460  166.7069 C.ar    1  UNL1       -0.0029
     20 N         139.6410  142.6060  164.9924 N.3     1  UNL1       -0.2690
     21 C         138.2114  142.6415  164.5397 C.3     1  UNL1        0.0724
     22 C         137.9328  144.0094  163.9910 C.3     1  UNL1        0.0188
     23 C         139.1902  144.8194  164.1045 C.3     1  UNL1        0.0188
     24 C         140.2460  143.9520  164.7234 C.3     1  UNL1        0.0724
@<TRIPOS>BOND
     1     2     3   ar
     2     3     4   ar
     3     4     5   ar
     4     5     1    1
     5     1    13    1
     6    13    14    1
     7    14    15   ar
     8    15    16   ar
     9    16    17   ar
    10    17    18   ar
    11    18    19   ar
    12    13    20    1
    13    20    21    1
    14    21    22    1
    15    22    23    1
    16    23    24    1
    17     1     8    1
    18     8     9    1
    19     9    10    1
    20    10    11    1
    21    11    12    1
    22     5     6   ar
    23     6     7   ar
    24     7     2   ar
    25    19    14   ar
    26    24    20    1
    27    12     8    1
@<TRIPOS>MOLECULE
*****
 24 27 0 0 0
SMALL
GASTEIGER

@<TRIPOS>ATOM
      1 C         140.3606  141.4583  165.5587 C.3     1  UNL1        0.0991
      2 C         138.4007  137.4076  165.5920 C.ar    1  UNL1       -0.0000
      3 C         139.3805  137.7578  164.5117 C.ar    1  UNL1       -0.0003
      4 C         140.0338  139.1081  164.5006 C.ar    1  UNL1       -0.0029
      5 C         139.7073  140.1081  165.5698 C.ar    1  UNL1       -0.0061
      6 C         138.7275  139.7578  166.6502 C.ar    1  UNL1       -0.0029
      7 C         138.0742  138.4076  166.6613 C.ar    1  UNL1       -0.0003
      8 N         139.6547  142.6279  164.9394 N.3     1  UNL1       -0.2690
      9 C         140.2455  143.9845  164.6925 C.3     1  UNL1        0.0724
     10 C         139.1900  144.8414  164.0587 C.3     1  UNL1        0.0188
     11 C         137.9469  144.0145  163.9138 C.3     1  UNL1        0.0188
     12 C         138.2341  142.6465  164.4581 C.3     1  UNL1        0.0724
     13 C         141.7198  141.6388  166.1669 C.3     1  UNL1        0.0991
     14 C         141.8513  142.1525  167.5701 C.ar    1  UNL1       -0.0061
     15 C         143.1617  142.0376  168.2910 C.ar    1  UNL1       -0.0029
     16 C         143.2933  142.5512  169.6942 C.ar    1  UNL1       -0.0003
     17 C         142.1144  143.1797  170.3764 C.ar    1  UNL1       -0.0000
     18 C         140.8041  143.2946  169.6555 C.ar    1  UNL1       -0.0003
     19 C         140.6726  142.7809  168.2523 C.ar    1  UNL1       -0.0029
     20 N         142.9475  141.3058  165.3720 N.3     1  UNL1       -0.2690
     21 C         143.5356  139.9380  165.1896 C.3     1  UNL1        0.0724
     22 C         144.7542  140.0690  164.3248 C.3     1  UNL1        0.0188
     23 C         144.9191  141.5177  163.9726 C.3     1  UNL1        0.0188
     24 C         143.8025  142.2821  164.6198 C.3     1  UNL1        0.0724
@<TRIPOS>BOND
     1     2     3   ar
     2     3     4   ar
     3     4     5   ar
     4     5     1    1
     5     1    13    1
     6    13    14    1
     7    14    15   ar
     8    15    16   ar
     9    16    17   ar
    10    17    18   ar
    11    18    19   ar
    12    13    20    1
    13    20    21    1
    14    21    22    1
    15    22    23    1
    16    23    24    1
    17     1     8    1
    18     8     9    1
    19     9    10    1
    20    10    11    1
    21    11    12    1
    22     5     6   ar
    23     6     7   ar
    24     7     2   ar
    25    19    14   ar
    26    24    20    1
    27    12     8    1
@<TRIPOS>MOLECULE
*****
 24 27 0 0 0
SMALL
GASTEIGER

@<TRIPOS>ATOM
      1 C         141.7506  141.3751  166.1190 C.3     1  UNL1        0.0991
      2 C         142.0438  143.1919  170.2254 C.ar    1  UNL1       -0.0000
      3 C         143.2392  142.5233  169.6140 C.ar    1  UNL1       -0.0003
      4 C         143.1415  141.9177  168.2452 C.ar    1  UNL1       -0.0029
      5 C         141.8483  141.9807  167.4878 C.ar    1  UNL1       -0.0061
      6 C         140.6529  142.6492  168.0992 C.ar    1  UNL1       -0.0029
      7 C         140.7506  143.2549  169.4680 C.ar    1  UNL1       -0.0003
      8 N         142.9901  140.9079  165.4153 N.3     1  UNL1       -0.2690
      9 C         143.4714  139.4900  165.3248 C.3     1  UNL1        0.0724
     10 C         144.7448  139.4823  164.5321 C.3     1  UNL1        0.0188
     11 C         145.0506  140.8955  164.1326 C.3     1  UNL1        0.0188
     12 C         143.9662  141.7765  164.6784 C.3     1  UNL1        0.0724
     13 C         140.4133  141.2366  165.4538 C.3     1  UNL1        0.0991
     14 C         139.8171  142.4004  164.7189 C.ar    1  UNL1       -0.0061
     15 C         140.6581  143.6040  164.4118 C.ar    1  UNL1       -0.0029
     16 C         140.0619  144.7678  163.6769 C.ar    1  UNL1       -0.0003
     17 C         138.6247  144.7280  163.2490 C.ar    1  UNL1       -0.0000
     18 C         137.7838  143.5244  163.5560 C.ar    1  UNL1       -0.0003
     19 C         138.3800  142.3606  164.2910 C.ar    1  UNL1       -0.0029
     20 N         139.6721  139.9343  165.5236 N.3     1  UNL1       -0.2690
     21 C         138.6978  139.5304  166.5901 C.3     1  UNL1        0.0724
     22 C         138.1987  138.1538  166.2648 C.3     1  UNL1        0.0188
     23 C         138.8646  137.7069  164.9971 C.3     1  UNL1        0.0188
     24 C         139.7753  138.8073  164.5391 C.3     1  UNL1        0.0724
@<TRIPOS>BOND
     1     2     3   ar
     2     3     4   ar
     3     4     5   ar
     4     5     1    1
     5     1    13    1
     6    13    14    1
     7    14    15   ar
     8    15    16   ar
     9    16    17   ar
    10    17    18   ar
    11    18    19   ar
    12    13    20    1
    13    20    21    1
    14    21    22    1
    15    22    23    1
    16    23    24    1
    17     1     8    1
    18     8     9    1
    19     9    10    1
    20    10    11    1
    21    11    12    1
    22     5     6   ar
    23     6     7   ar
    24     7     2   ar
    25    19    14   ar
    26    24    20    1
    27    12     8    1
@<TRIPOS>MOLECULE
*****
 24 27 0 0 0
SMALL
GASTEIGER

@<TRIPOS>ATOM
      1 C         140.4130  141.2366  165.4764 C.3     1  UNL1        0.0991
      2 C         138.6289  144.7350  163.2791 C.ar    1  UNL1       -0.0000
      3 C         137.7842  143.5353  163.5910 C.ar    1  UNL1       -0.0003
      4 C         138.3789  142.3692  164.3234 C.ar    1  UNL1       -0.0029
      5 C         139.8183  142.4027  164.7440 C.ar    1  UNL1       -0.0061
      6 C         140.6630  143.6024  164.4321 C.ar    1  UNL1       -0.0029
      7 C         140.0683  144.7685  163.6997 C.ar    1  UNL1       -0.0003
      8 N         139.6690  139.9360  165.5458 N.3     1  UNL1       -0.2690
      9 C         138.6934  139.5341  166.6120 C.3     1  UNL1        0.0724
     10 C         138.1914  138.1586  166.2864 C.3     1  UNL1        0.0188
     11 C         138.8567  137.7104  165.0189 C.3     1  UNL1        0.0188
     12 C         139.7699  138.8089  164.5612 C.3     1  UNL1        0.0724
     13 C         141.7518  141.3711  166.1395 C.3     1  UNL1        0.0991
     14 C         141.8539  141.9804  167.5063 C.ar    1  UNL1       -0.0061
     15 C         140.6592  142.6471  168.1215 C.ar    1  UNL1       -0.0029
     16 C         140.7614  143.2564  169.4883 C.ar    1  UNL1       -0.0003
     17 C         142.0583  143.1990  170.2400 C.ar    1  UNL1       -0.0000
     18 C         143.2528  142.5323  169.6249 C.ar    1  UNL1       -0.0003
     19 C         143.1507  141.9230  168.2580 C.ar    1  UNL1       -0.0029
     20 N         142.9884  140.8962  165.4356 N.3     1  UNL1       -0.2690
     21 C         143.4650  139.4764  165.3517 C.3     1  UNL1        0.0724
     22 C         144.7367  139.4606  164.5564 C.3     1  UNL1        0.0188
     23 C         145.0461  140.8706  164.1488 C.3     1  UNL1        0.0188
     24 C         143.9656  141.7579  164.6922 C.3     1  UNL1        0.0724
@<TRIPOS>BOND
     1     2     3   ar
     2     3     4   ar
     3     4     5   ar
     4     5     1    1
     5     1    13    1
     6    13    14    1
     7    14    15   ar
     8    15    16   ar
     9    16    17   ar
    10    17    18   ar
    11    18    19   ar
    12    13    20    1
    13    20    21    1
    14    21    22    1
    15    22    23    1
    16    23    24    1
    17     1     8    1
    18     8     9    1
    19     9    10    1
    20    10    11    1
    21    11    12    1
    22     5     6   ar
    23     6     7   ar
    24     7     2   ar
    25    19    14   ar
    26    24    20    1
    27    12     8    1
@<TRIPOS>MOLECULE
*****
 24 27 0 0 0
SMALL
GASTEIGER

@<TRIPOS>ATOM
      1 C         140.4540  141.5580  165.4549 C.3     1  UNL1        0.0991
      2 C         138.5587  137.4780  165.5638 C.ar    1  UNL1       -0.0000
      3 C         138.1465  138.5232  166.5576 C.ar    1  UNL1       -0.0003
      4 C         138.7783  139.8832  166.5213 C.ar    1  UNL1       -0.0029
      5 C         139.8222  140.1980  165.4912 C.ar    1  UNL1       -0.0061
      6 C         140.2343  139.1528  164.4974 C.ar    1  UNL1       -0.0029
      7 C         139.6026  137.7928  164.5337 C.ar    1  UNL1       -0.0003
      8 N         139.7705  142.6836  164.7367 N.3     1  UNL1       -0.2690
      9 C         138.4927  142.5852  163.9571 C.3     1  UNL1        0.0724
     10 C         138.1771  143.9460  163.4106 C.3     1  UNL1        0.0188
     11 C         139.2599  144.8854  163.8523 C.3     1  UNL1        0.0188
     12 C         140.2446  144.1052  164.6720 C.3     1  UNL1        0.0724
     13 C         141.7693  141.7924  166.1367 C.3     1  UNL1        0.0991
     14 C         143.0511  141.5770  165.3880 C.ar    1  UNL1       -0.0061
     15 C         143.5452  140.1840  165.1321 C.ar    1  UNL1       -0.0029
     16 C         144.8271  139.9687  164.3834 C.ar    1  UNL1       -0.0003
     17 C         145.6148  141.1464  163.8907 C.ar    1  UNL1       -0.0000
     18 C         145.1206  142.5393  164.1466 C.ar    1  UNL1       -0.0003
     19 C         143.8388  142.7546  164.8953 C.ar    1  UNL1       -0.0029
     20 N         141.8028  142.2422  167.5674 N.3     1  UNL1       -0.2690
     21 C         140.6464  142.7986  168.3440 C.3     1  UNL1        0.0724
     22 C         141.1276  143.1148  169.7291 C.3     1  UNL1        0.0188
     23 C         142.5813  142.7537  169.8086 C.3     1  UNL1        0.0188
     24 C         142.9986  142.2144  168.4725 C.3     1  UNL1        0.0724
@<TRIPOS>BOND
     1     2     3   ar
     2     3     4   ar
     3     4     5   ar
     4     5     1    1
     5     1    13    1
     6    13    14    1
     7    14    15   ar
     8    15    16   ar
     9    16    17   ar
    10    17    18   ar
    11    18    19   ar
    12    13    20    1
    13    20    21    1
    14    21    22    1
    15    22    23    1
    16    23    24    1
    17     1     8    1
    18     8     9    1
    19     9    10    1
    20    10    11    1
    21    11    12    1
    22     5     6   ar
    23     6     7   ar
    24     7     2   ar
    25    19    14   ar
    26    24    20    1
    27    12     8    1
@<TRIPOS>MOLECULE
*****
 24 27 0 0 0
SMALL
GASTEIGER

@<TRIPOS>ATOM
      1 C         141.9010  141.7378  165.2995 C.3     1  UNL1        0.0991
      2 C         139.0795  144.9879  163.9856 C.ar    1  UNL1       -0.0000
      3 C         140.1051  144.4536  163.0303 C.ar    1  UNL1       -0.0003
      4 C         141.0456  143.3703  163.4683 C.ar    1  UNL1       -0.0029
      5 C         140.9605  142.8212  164.8615 C.ar    1  UNL1       -0.0061
      6 C         139.9349  143.3555  165.8168 C.ar    1  UNL1       -0.0029
      7 C         138.9944  144.4389  165.3789 C.ar    1  UNL1       -0.0003
      8 N         143.2241  141.5704  164.6129 N.3     1  UNL1       -0.2690
      9 C         144.4327  142.4381  164.8042 C.3     1  UNL1        0.0724
     10 C         145.5265  141.9100  163.9241 C.3     1  UNL1        0.0188
     11 C         144.9940  140.7159  163.1888 C.3     1  UNL1        0.0188
     12 C         143.5710  140.5060  163.6146 C.3     1  UNL1        0.0724
     13 C         141.5183  140.8218  166.4239 C.3     1  UNL1        0.0991
     14 C         140.4743  139.7664  166.2094 C.ar    1  UNL1       -0.0061
     15 C         139.1786  139.8290  166.9627 C.ar    1  UNL1       -0.0029
     16 C         138.1346  138.7735  166.7481 C.ar    1  UNL1       -0.0003
     17 C         138.3862  137.6555  165.7802 C.ar    1  UNL1       -0.0000
     18 C         139.6818  137.5929  165.0270 C.ar    1  UNL1       -0.0003
     19 C         140.7259  138.6483  165.2415 C.ar    1  UNL1       -0.0029
     20 N         142.1798  140.9612  167.7630 N.3     1  UNL1       -0.2690
     21 C         142.9004  142.1758  168.2683 C.3     1  UNL1        0.0724
     22 C         143.4027  141.8757  169.6495 C.3     1  UNL1        0.0188
     23 C         142.9925  140.4755  169.9979 C.3     1  UNL1        0.0188
     24 C         142.2367  139.9103  168.8319 C.3     1  UNL1        0.0724
@<TRIPOS>BOND
     1     2     3   ar
     2     3     4   ar
     3     4     5   ar
     4     5     1    1
     5     1    13    1
     6    13    14    1
     7    14    15   ar
     8    15    16   ar
     9    16    17   ar
    10    17    18   ar
    11    18    19   ar
    12    13    20    1
    13    20    21    1
    14    21    22    1
    15    22    23    1
    16    23    24    1
    17     1     8    1
    18     8     9    1
    19     9    10    1
    20    10    11    1
    21    11    12    1
    22     5     6   ar
    23     6     7   ar
    24     7     2   ar
    25    19    14   ar
    26    24    20    1
    27    12     8    1
@<TRIPOS>MOLECULE
*****
 24 27 0 0 0
SMALL
GASTEIGER

@<TRIPOS>ATOM
      1 C         140.1325  141.1819  165.6569 C.3     1  UNL1        0.0991
      2 C         138.1708  144.5070  163.3448 C.ar    1  UNL1       -0.0000
      3 C         139.3526  144.7987  164.2212 C.ar    1  UNL1       -0.0003
      4 C         140.0065  143.6903  164.9919 C.ar    1  UNL1       -0.0029
      5 C         139.4786  142.2903  164.8862 C.ar    1  UNL1       -0.0061
      6 C         138.2967  141.9987  164.0098 C.ar    1  UNL1       -0.0029
      7 C         137.6428  143.1070  163.2391 C.ar    1  UNL1       -0.0003
      8 N         139.4474  139.8540  165.7881 N.3     1  UNL1       -0.2690
      9 C         139.6543  138.6635  164.8993 C.3     1  UNL1        0.0724
     10 C         138.7699  137.5571  165.3930 C.3     1  UNL1        0.0188
     11 C         138.0164  138.0638  166.5870 C.3     1  UNL1        0.0188
     12 C         138.4352  139.4834  166.8312 C.3     1  UNL1        0.0724
     13 C         141.4714  141.4015  166.2963 C.3     1  UNL1        0.0991
     14 C         142.7243  141.0314  165.5593 C.ar    1  UNL1       -0.0061
     15 C         143.1904  139.6057  165.5411 C.ar    1  UNL1       -0.0029
     16 C         144.4433  139.2357  164.8040 C.ar    1  UNL1       -0.0003
     17 C         145.2301  140.2913  164.0851 C.ar    1  UNL1       -0.0000
     18 C         144.7640  141.7169  164.1033 C.ar    1  UNL1       -0.0003
     19 C         143.5111  142.0869  164.8404 C.ar    1  UNL1       -0.0029
     20 N         141.5575  141.9912  167.6729 N.3     1  UNL1       -0.2690
     21 C         140.4017  142.4666  168.5023 C.3     1  UNL1        0.0724
     22 C         140.9444  142.9782  169.8038 C.3     1  UNL1        0.0188
     23 C         142.4358  142.8189  169.7787 C.3     1  UNL1        0.0188
     24 C         142.8147  142.2089  168.4618 C.3     1  UNL1        0.0724
@<TRIPOS>BOND
     1     2     3   ar
     2     3     4   ar
     3     4     5   ar
     4     5     1    1
     5     1    13    1
     6    13    14    1
     7    14    15   ar
     8    15    16   ar
     9    16    17   ar
    10    17    18   ar
    11    18    19   ar
    12    13    20    1
    13    20    21    1
    14    21    22    1
    15    22    23    1
    16    23    24    1
    17     1     8    1
    18     8     9    1
    19     9    10    1
    20    10    11    1
    21    11    12    1
    22     5     6   ar
    23     6     7   ar
    24     7     2   ar
    25    19    14   ar
    26    24    20    1
    27    12     8    1
