@<TRIPOS>MOLECULE
*****
 16 17 0 0 0
SMALL
GASTEIGER

@<TRIPOS>ATOM
      1 C         142.1758  138.1121  163.9741 C.3     1  UNL1        0.0899
      2 N         141.0688  138.4504  164.9280 N.3     1  UNL1       -0.2674
      3 C         139.7479  137.7958  164.6508 C.3     1  UNL1        0.0986
      4 C         138.4612  137.9277  165.4101 C.2     1  UNL1       -0.0134
      5 C         138.1772  138.7468  166.6343 C.2     1  UNL1       -0.0289
      6 C         139.1101  139.6363  167.4014 C.3     1  UNL1        0.0315
      7 C         140.5573  139.9263  167.1338 C.3     1  UNL1        0.0427
      8 C         141.4290  139.3987  166.0332 C.3     1  UNL1        0.0771
      9 C         141.2204  140.8688  168.0940 C.ar    1  UNL1       -0.0199
     10 C         142.6062  140.5811  168.5912 C.ar    1  UNL1       -0.0033
     11 C         143.2693  141.5236  169.5514 C.ar    1  UNL1        0.0119
     12 C         142.5467  142.7538  170.0144 C.ar    1  UNL1        0.0682
     13 CL        143.2099  143.6963  170.9746 Cl      1  UNL1       -0.0814
     14 C         141.1611  143.0416  169.5173 C.ar    1  UNL1        0.0679
     15 CL        140.4386  144.2718  169.9803 Cl      1  UNL1       -0.0814
     16 C         140.4979  142.0991  168.5571 C.ar    1  UNL1        0.0080
@<TRIPOS>BOND
     1     1     2    1
     2     2     3    1
     3     3     4    1
     4     4     5    2
     5     5     6    1
     6     6     7    1
     7     7     9    1
     8     9    10   ar
     9    10    11   ar
    10    11    12   ar
    11    12    13    1
    12    12    14   ar
    13    14    15    1
    14    14    16   ar
    15     7     8    1
    16     8     2    1
    17    16     9   ar
@<TRIPOS>MOLECULE
*****
 16 17 0 0 0
SMALL
GASTEIGER

@<TRIPOS>ATOM
      1 C         138.5246  140.2150  170.1451 C.3     1  UNL1        0.0899
      2 N         139.6753  139.9615  169.2168 N.3     1  UNL1       -0.2674
      3 C         141.0328  139.9373  169.8545 C.3     1  UNL1        0.0986
      4 C         142.3665  139.7115  169.2065 C.2     1  UNL1       -0.0134
      5 C         142.6723  139.4540  167.7607 C.2     1  UNL1       -0.0289
      6 C         141.7198  139.3587  166.6059 C.3     1  UNL1        0.0315
      7 C         140.2262  139.4975  166.6117 C.3     1  UNL1        0.0427
      8 C         139.3164  139.7658  167.7735 C.3     1  UNL1        0.0771
      9 C         139.5536  139.3483  165.2793 C.ar    1  UNL1       -0.0199
     10 C         139.6860  138.0664  164.5116 C.ar    1  UNL1       -0.0033
     11 C         139.0134  137.9171  163.1792 C.ar    1  UNL1        0.0119
     12 C         138.2084  139.0498  162.6144 C.ar    1  UNL1        0.0682
     13 CL        137.5358  138.9006  161.2820 Cl      1  UNL1       -0.0814
     14 C         138.0760  140.3318  163.3820 C.ar    1  UNL1        0.0679
     15 CL        137.2711  141.4644  162.8172 Cl      1  UNL1       -0.0814
     16 C         138.7486  140.4810  164.7144 C.ar    1  UNL1        0.0080
@<TRIPOS>BOND
     1     1     2    1
     2     2     3    1
     3     3     4    1
     4     4     5    2
     5     5     6    1
     6     6     7    1
     7     7     9    1
     8     9    10   ar
     9    10    11   ar
    10    11    12   ar
    11    12    13    1
    12    12    14   ar
    13    14    15    1
    14    14    16   ar
    15     7     8    1
    16     8     2    1
    17    16     9   ar
@<TRIPOS>MOLECULE
*****
 16 17 0 0 0
SMALL
GASTEIGER

@<TRIPOS>ATOM
      1 C         138.0572  139.9736  163.2725 C.3     1  UNL1        0.0899
      2 N         138.3588  141.3894  163.6657 N.3     1  UNL1       -0.2674
      3 C         137.6256  142.4487  162.8973 C.3     1  UNL1        0.0986
      4 C         137.7063  143.9387  163.0488 C.2     1  UNL1       -0.0134
      5 C         138.5402  144.7378  164.0060 C.2     1  UNL1       -0.0289
      6 C         139.4993  144.2439  165.0482 C.3     1  UNL1        0.0315
      7 C         139.8614  142.8291  165.3906 C.3     1  UNL1        0.0427
      8 C         139.3539  141.5588  164.7754 C.3     1  UNL1        0.0771
      9 C         140.8635  142.6627  166.4942 C.ar    1  UNL1       -0.0199
     10 C         142.3024  142.3935  166.1665 C.ar    1  UNL1       -0.0033
     11 C         143.3046  142.2271  167.2701 C.ar    1  UNL1        0.0119
     12 C         142.8679  142.3299  168.7014 C.ar    1  UNL1        0.0682
     13 CL        143.8701  142.1635  169.8051 Cl      1  UNL1       -0.0814
     14 C         141.4291  142.5991  169.0292 C.ar    1  UNL1        0.0679
     15 CL        140.9925  142.7018  170.4605 Cl      1  UNL1       -0.0814
     16 C         140.4269  142.7655  167.9256 C.ar    1  UNL1        0.0080
@<TRIPOS>BOND
     1     1     2    1
     2     2     3    1
     3     3     4    1
     4     4     5    2
     5     5     6    1
     6     6     7    1
     7     7     9    1
     8     9    10   ar
     9    10    11   ar
    10    11    12   ar
    11    12    13    1
    12    12    14   ar
    13    14    15    1
    14    14    16   ar
    15     7     8    1
    16     8     2    1
    17    16     9   ar
@<TRIPOS>MOLECULE
*****
 16 17 0 0 0
SMALL
GASTEIGER

@<TRIPOS>ATOM
      1 C         137.4786  142.1984  163.1223 C.3     1  UNL1        0.0899
      2 N         138.0624  140.8339  163.3399 N.3     1  UNL1       -0.2674
      3 C         137.7765  139.8249  162.2674 C.3     1  UNL1        0.0986
      4 C         138.2125  138.3918  162.1914 C.2     1  UNL1       -0.0134
      5 C         139.0421  137.6135  163.1691 C.2     1  UNL1       -0.0289
      6 C         139.6406  138.0762  164.4644 C.3     1  UNL1        0.0315
      7 C         139.5573  139.4315  165.1018 C.3     1  UNL1        0.0427
      8 C         138.8550  140.6587  164.6014 C.3     1  UNL1        0.0771
      9 C         140.2707  139.5789  166.4130 C.ar    1  UNL1       -0.0199
     10 C         141.7541  139.3689  166.4876 C.ar    1  UNL1       -0.0033
     11 C         142.4676  139.5164  167.7988 C.ar    1  UNL1        0.0119
     12 C         141.6976  139.8739  169.0354 C.ar    1  UNL1        0.0682
     13 CL        142.4110  140.0213  170.3466 Cl      1  UNL1       -0.0814
     14 C         140.2142  140.0839  168.9609 C.ar    1  UNL1        0.0679
     15 CL        139.4443  140.4413  170.1976 Cl      1  UNL1       -0.0814
     16 C         139.5008  139.9364  167.6497 C.ar    1  UNL1        0.0080
@<TRIPOS>BOND
     1     1     2    1
     2     2     3    1
     3     3     4    1
     4     4     5    2
     5     5     6    1
     6     6     7    1
     7     7     9    1
     8     9    10   ar
     9    10    11   ar
    10    11    12   ar
    11    12    13    1
    12    12    14   ar
    13    14    15    1
    14    14    16   ar
    15     7     8    1
    16     8     2    1
    17    16     9   ar
@<TRIPOS>MOLECULE
*****
 16 17 0 0 0
SMALL
GASTEIGER

@<TRIPOS>ATOM
      1 C         139.3390  145.4732  162.6970 C.3     1  UNL1        0.0899
      2 N         139.0445  144.1586  163.3565 N.3     1  UNL1       -0.2674
      3 C         137.9164  143.3697  162.7606 C.3     1  UNL1        0.0986
      4 C         137.3823  142.0341  163.1857 C.2     1  UNL1       -0.0134
      5 C         137.8442  141.1574  164.3118 C.2     1  UNL1       -0.0289
      6 C         138.9545  141.3998  165.2908 C.3     1  UNL1        0.0315
      7 C         139.8770  142.5789  165.3856 C.3     1  UNL1        0.0427
      8 C         139.9171  143.8065  164.5248 C.3     1  UNL1        0.0771
      9 C         140.8939  142.5227  166.4869 C.ar    1  UNL1       -0.0199
     10 C         142.3461  142.3406  166.1582 C.ar    1  UNL1       -0.0033
     11 C         143.3630  142.2844  167.2595 C.ar    1  UNL1        0.0119
     12 C         142.9277  142.4103  168.6894 C.ar    1  UNL1        0.0682
     13 CL        143.9446  142.3541  169.7907 Cl      1  UNL1       -0.0814
     14 C         141.4755  142.5923  169.0181 C.ar    1  UNL1        0.0679
     15 CL        141.0402  142.7182  170.4479 Cl      1  UNL1       -0.0814
     16 C         140.4586  142.6485  167.9168 C.ar    1  UNL1        0.0080
@<TRIPOS>BOND
     1     1     2    1
     2     2     3    1
     3     3     4    1
     4     4     5    2
     5     5     6    1
     6     6     7    1
     7     7     9    1
     8     9    10   ar
     9    10    11   ar
    10    11    12   ar
    11    12    13    1
    12    12    14   ar
    13    14    15    1
    14    14    16   ar
    15     7     8    1
    16     8     2    1
    17    16     9   ar
@<TRIPOS>MOLECULE
*****
 16 17 0 0 0
SMALL
GASTEIGER

@<TRIPOS>ATOM
      1 C         143.7194  144.9169  163.5451 C.3     1  UNL1        0.0899
      2 N         143.8821  143.4661  163.8895 N.3     1  UNL1       -0.2674
      3 C         144.8974  142.7149  163.0803 C.3     1  UNL1        0.0986
      4 C         145.2893  141.2705  163.1794 C.2     1  UNL1       -0.0134
      5 C         144.7628  140.2203  164.1121 C.2     1  UNL1       -0.0289
      6 C         143.7142  140.3554  165.1762 C.3     1  UNL1        0.0315
      7 C         142.9332  141.5739  165.5703 C.3     1  UNL1        0.0427
      8 C         143.0079  142.9582  164.9977 C.3     1  UNL1        0.0771
      9 C         141.9471  141.3827  166.6843 C.ar    1  UNL1       -0.0199
     10 C         141.2905  140.0489  166.8842 C.ar    1  UNL1       -0.0033
     11 C         140.3044  139.8577  167.9983 C.ar    1  UNL1        0.0119
     12 C         139.9749  141.0004  168.9124 C.ar    1  UNL1        0.0682
     13 CL        138.9889  140.8092  170.0265 Cl      1  UNL1       -0.0814
     14 C         140.6315  142.3342  168.7126 C.ar    1  UNL1        0.0679
     15 CL        140.3020  143.4768  169.6268 Cl      1  UNL1       -0.0814
     16 C         141.6176  142.5254  167.5986 C.ar    1  UNL1        0.0080
@<TRIPOS>BOND
     1     1     2    1
     2     2     3    1
     3     3     4    1
     4     4     5    2
     5     5     6    1
     6     6     7    1
     7     7     9    1
     8     9    10   ar
     9    10    11   ar
    10    11    12   ar
    11    12    13    1
    12    12    14   ar
    13    14    15    1
    14    14    16   ar
    15     7     8    1
    16     8     2    1
    17    16     9   ar
@<TRIPOS>MOLECULE
*****
 16 17 0 0 0
SMALL
GASTEIGER

@<TRIPOS>ATOM
      1 C         145.4430  141.0277  163.6492 C.3     1  UNL1        0.0899
      2 N         144.2923  140.0679  163.7169 N.3     1  UNL1       -0.2674
      3 C         144.0749  139.2251  162.4951 C.3     1  UNL1        0.0986
      4 C         143.0227  138.1842  162.2522 C.2     1  UNL1       -0.0134
      5 C         141.9279  137.7286  163.1710 C.2     1  UNL1       -0.0289
      6 C         141.6151  138.2017  164.5596 C.3     1  UNL1        0.0315
      7 C         142.3197  139.2471  165.3724 C.3     1  UNL1        0.0427
      8 C         143.5111  140.0776  164.9975 C.3     1  UNL1        0.0771
      9 C         141.7587  139.4947  166.7414 C.ar    1  UNL1       -0.0199
     10 C         140.3099  139.8473  166.9057 C.ar    1  UNL1       -0.0033
     11 C         139.7488  140.0949  168.2746 C.ar    1  UNL1        0.0119
     12 C         140.6365  139.9899  169.4792 C.ar    1  UNL1        0.0682
     13 CL        140.0754  140.2375  170.8481 Cl      1  UNL1       -0.0814
     14 C         142.0852  139.6373  169.3149 C.ar    1  UNL1        0.0679
     15 CL        142.9728  139.5323  170.5195 Cl      1  UNL1       -0.0814
     16 C         142.6463  139.3897  167.9460 C.ar    1  UNL1        0.0080
@<TRIPOS>BOND
     1     1     2    1
     2     2     3    1
     3     3     4    1
     4     4     5    2
     5     5     6    1
     6     6     7    1
     7     7     9    1
     8     9    10   ar
     9    10    11   ar
    10    11    12   ar
    11    12    13    1
    12    12    14   ar
    13    14    15    1
    14    14    16   ar
    15     7     8    1
    16     8     2    1
    17    16     9   ar
@<TRIPOS>MOLECULE
*****
 16 17 0 0 0
SMALL
GASTEIGER

@<TRIPOS>ATOM
      1 C         143.8536  138.8205  162.7745 C.3     1  UNL1        0.0899
      2 N         143.9454  140.0506  163.6280 N.3     1  UNL1       -0.2674
      3 C         144.9895  141.0482  163.2220 C.3     1  UNL1        0.0986
      4 C         145.3270  142.3618  163.8623 C.2     1  UNL1       -0.0134
      5 C         144.7038  143.0027  165.0669 C.2     1  UNL1       -0.0289
      6 C         143.5891  142.4880  165.9286 C.3     1  UNL1        0.0315
      7 C         142.8224  141.2053  165.7986 C.3     1  UNL1        0.0427
      8 C         142.9809  140.1206  164.7748 C.3     1  UNL1        0.0771
      9 C         141.7561  140.9772  166.8286 C.ar    1  UNL1       -0.0199
     10 C         141.8721  141.6137  168.1820 C.ar    1  UNL1       -0.0033
     11 C         140.8058  141.3856  169.2120 C.ar    1  UNL1        0.0119
     12 C         139.6235  140.5210  168.8888 C.ar    1  UNL1        0.0682
     13 CL        138.5572  140.2929  169.9188 Cl      1  UNL1       -0.0814
     14 C         139.5074  139.8844  167.5355 C.ar    1  UNL1        0.0679
     15 CL        138.3252  139.0198  167.2123 Cl      1  UNL1       -0.0814
     16 C         140.5737  140.1125  166.5054 C.ar    1  UNL1        0.0080
@<TRIPOS>BOND
     1     1     2    1
     2     2     3    1
     3     3     4    1
     4     4     5    2
     5     5     6    1
     6     6     7    1
     7     7     9    1
     8     9    10   ar
     9    10    11   ar
    10    11    12   ar
    11    12    13    1
    12    12    14   ar
    13    14    15    1
    14    14    16   ar
    15     7     8    1
    16     8     2    1
    17    16     9   ar
@<TRIPOS>MOLECULE
*****
 16 17 0 0 0
SMALL
GASTEIGER

@<TRIPOS>ATOM
      1 C         143.2243  142.2942  168.1548 C.3     1  UNL1        0.0899
      2 N         141.9328  141.6077  168.4874 N.3     1  UNL1       -0.2674
      3 C         141.5769  141.5607  169.9439 C.3     1  UNL1        0.0986
      4 C         140.3683  140.9535  170.5921 C.2     1  UNL1       -0.0134
      5 C         139.2169  140.2431  169.9442 C.2     1  UNL1       -0.0289
      6 C         138.9898  139.9647  168.4879 C.3     1  UNL1        0.0315
      7 C         139.8581  140.3278  167.3198 C.3     1  UNL1        0.0427
      8 C         141.1677  141.0590  167.3196 C.3     1  UNL1        0.0771
      9 C         139.3493  139.9036  165.9740 C.ar    1  UNL1       -0.0199
     10 C         139.6225  138.5167  165.4719 C.ar    1  UNL1       -0.0033
     11 C         139.1137  138.0925  164.1261 C.ar    1  UNL1        0.0119
     12 C         138.3318  139.0551  163.2824 C.ar    1  UNL1        0.0682
     13 CL        137.8230  138.6309  161.9366 Cl      1  UNL1       -0.0814
     14 C         138.0585  140.4420  163.7845 C.ar    1  UNL1        0.0679
     15 CL        137.2766  141.4046  162.9408 Cl      1  UNL1       -0.0814
     16 C         138.5673  140.8662  165.1303 C.ar    1  UNL1        0.0080
@<TRIPOS>BOND
     1     1     2    1
     2     2     3    1
     3     3     4    1
     4     4     5    2
     5     5     6    1
     6     6     7    1
     7     7     9    1
     8     9    10   ar
     9    10    11   ar
    10    11    12   ar
    11    12    13    1
    12    12    14   ar
    13    14    15    1
    14    14    16   ar
    15     7     8    1
    16     8     2    1
    17    16     9   ar
