@<TRIPOS>MOLECULE
*****
 35 38 0 0 0
SMALL
GASTEIGER

@<TRIPOS>ATOM
      1 C         141.4711  144.1670  160.3950 C.ar    1  UNL1        0.2194
      2 N         141.4399  142.9117  159.5745 N.ar    1  UNL1       -0.1988
      3 C         141.1861  141.5895  160.2357 C.ar    1  UNL1        0.1376
      4 C         140.9634  141.5226  161.7177 C.ar    1  UNL1        0.0676
      5 C         140.7096  140.2004  162.3789 C.ar    1  UNL1        0.0074
      6 C         140.4870  140.1335  163.8608 C.ar    1  UNL1        0.0193
      7 C         140.5181  141.3887  164.6813 C.ar    1  UNL1        0.0829
      8 N         140.7720  142.7109  164.0201 N.ar    1  UNL1       -0.2264
      9 C         140.9946  142.7778  162.5382 C.ar    1  UNL1        0.1678
     10 N         141.2485  144.1001  161.8769 N.ar    1  UNL1       -0.1946
     11 N         141.1549  140.3343  159.4152 N.pl3   1  UNL1       -0.2897
     12 C         139.8609  139.8541  158.8278 C.3     1  UNL1        0.1242
     13 C         139.8297  138.5989  158.0073 C.3     1  UNL1        0.1636
     14 O         141.0925  137.8237  157.7740 O.3     1  UNL1       -0.3502
     15 C         142.3866  138.3038  158.3614 C.3     1  UNL1        0.1618
     16 C         142.4178  139.5591  159.1820 C.3     1  UNL1        0.1038
     17 C         143.7118  140.0392  159.7693 C.3     1  UNL1        0.0241
     18 C         140.2955  141.3218  166.1633 C.ar    1  UNL1        0.0177
     19 C         139.7815  140.0587  166.7881 C.ar    1  UNL1        0.0046
     20 C         139.5588  139.9918  168.2700 C.ar    1  UNL1        0.0367
     21 C         139.8502  141.1879  169.1270 C.ar    1  UNL1        0.1370
     22 C         140.3642  142.4510  168.5021 C.ar    1  UNL1        0.0410
     23 C         140.5868  142.5179  167.0202 C.ar    1  UNL1        0.0027
     24 C         140.6555  143.6471  169.3591 C.3     1  UNL1        0.1666
     25 O         139.7776  143.9594  170.5344 O.3     1  UNL1       -0.3771
     26 H         138.8905  144.1961  170.2215 H       1  UNL1        0.2109
     27 O         139.6275  141.1210  170.6089 O.3     1  UNL1       -0.4717
     28 C         140.7304  140.6556  171.5127 C.3     1  UNL1        0.2525
     29 N         141.7250  145.4892  159.7336 N.pl3   1  UNL1       -0.3021
     30 H         142.1546  146.2174  160.2380 H       1  UNL1        0.1497
     31 C         141.3242  145.7019  158.3039 C.3     1  UNL1        0.1013
     32 C         142.3649  145.6916  157.2238 C.3     1  UNL1        0.0239
     33 C         139.8826  145.9248  157.9543 C.3     1  UNL1        0.1617
     34 C         138.9687  146.8353  155.6992 C.3     1  UNL1        0.1742
     35 O         139.4924  147.0818  157.0830 O.3     1  UNL1       -0.3494
@<TRIPOS>BOND
     1    34    35    1
     2    35    33    1
     3    33    31    1
     4    31    32    1
     5    31    29    1
     6    29     1    1
     7     1     2   ar
     8     2     3   ar
     9     3    11    1
    10    11    12    1
    11    12    13    1
    12    13    14    1
    13    14    15    1
    14    15    16    1
    15    16    17    1
    16     3     4   ar
    17     4     5   ar
    18     5     6   ar
    19     6     7   ar
    20     7    18    1
    21    18    19   ar
    22    19    20   ar
    23    20    21   ar
    24    21    27    1
    25    27    28    1
    26    21    22   ar
    27    22    24    1
    28    24    25    1
    29    22    23   ar
    30     7     8   ar
    31     8     9   ar
    32     9    10   ar
    33    10     1   ar
    34    16    11    1
    35     9     4   ar
    36    23    18   ar
    37    29    30    1
    38    25    26    1
@<TRIPOS>MOLECULE
*****
 35 38 0 0 0
SMALL
GASTEIGER

@<TRIPOS>ATOM
      1 C         135.4783  141.1584  155.6819 C.ar    1  UNL1        0.2194
      2 N         136.3285  140.4543  156.6975 N.ar    1  UNL1       -0.1988
      3 C         137.5675  141.1145  157.2257 C.ar    1  UNL1        0.1376
      4 C         137.9563  142.4788  156.7384 C.ar    1  UNL1        0.0676
      5 C         139.1952  143.1390  157.2667 C.ar    1  UNL1        0.0074
      6 C         139.5840  144.5033  156.7794 C.ar    1  UNL1        0.0193
      7 C         138.7338  145.2074  155.7638 C.ar    1  UNL1        0.0829
      8 N         137.4949  144.5472  155.2355 N.ar    1  UNL1       -0.2264
      9 C         137.1061  143.1830  155.7228 C.ar    1  UNL1        0.1678
     10 N         135.8671  142.5227  155.1946 N.ar    1  UNL1       -0.1946
     11 N         138.4176  140.4104  158.2413 N.pl3   1  UNL1       -0.2897
     12 C         138.1943  140.6534  159.7045 C.3     1  UNL1        0.1242
     13 C         139.0444  139.9492  160.7201 C.3     1  UNL1        0.1636
     14 O         140.1180  139.0021  160.2725 O.3     1  UNL1       -0.3502
     15 C         140.3414  138.7591  158.8092 C.3     1  UNL1        0.1618
     16 C         139.4912  139.4632  157.7936 C.3     1  UNL1        0.1038
     17 C         139.7146  139.2202  156.3304 C.3     1  UNL1        0.0241
     18 C         139.1227  146.5718  155.2765 C.ar    1  UNL1        0.0177
     19 C         140.0393  146.7141  154.0977 C.ar    1  UNL1        0.0046
     20 C         140.4281  148.0785  153.6104 C.ar    1  UNL1        0.0367
     21 C         139.9003  149.3004  154.3019 C.ar    1  UNL1        0.1370
     22 C         138.9837  149.1581  155.4808 C.ar    1  UNL1        0.0410
     23 C         138.5949  147.7938  155.9680 C.ar    1  UNL1        0.0027
     24 C         138.4559  150.3800  156.1723 C.3     1  UNL1        0.1666
     25 O         139.4073  151.3675  156.7802 O.3     1  UNL1       -0.3771
     26 H         139.8756  150.9515  157.5208 H       1  UNL1        0.2109
     27 O         140.2891  150.6648  153.8147 O.3     1  UNL1       -0.4717
     28 C         141.6438  151.2198  154.1411 C.3     1  UNL1        0.2525
     29 N         134.2393  140.4982  155.1536 N.pl3   1  UNL1       -0.3021
     30 H         134.2761  139.9796  154.3175 H       1  UNL1        0.1497
     31 C         132.9442  140.6280  155.8992 C.3     1  UNL1        0.1013
     32 C         131.9174  141.6253  155.4509 C.3     1  UNL1        0.0239
     33 C         132.6760  139.7605  157.0932 C.3     1  UNL1        0.1617
     34 C         130.7392  138.0973  156.6112 C.3     1  UNL1        0.1742
     35 O         132.1875  138.3549  156.9045 O.3     1  UNL1       -0.3494
@<TRIPOS>BOND
     1    34    35    1
     2    35    33    1
     3    33    31    1
     4    31    32    1
     5    31    29    1
     6    29     1    1
     7     1     2   ar
     8     2     3   ar
     9     3    11    1
    10    11    12    1
    11    12    13    1
    12    13    14    1
    13    14    15    1
    14    15    16    1
    15    16    17    1
    16     3     4   ar
    17     4     5   ar
    18     5     6   ar
    19     6     7   ar
    20     7    18    1
    21    18    19   ar
    22    19    20   ar
    23    20    21   ar
    24    21    27    1
    25    27    28    1
    26    21    22   ar
    27    22    24    1
    28    24    25    1
    29    22    23   ar
    30     7     8   ar
    31     8     9   ar
    32     9    10   ar
    33    10     1   ar
    34    16    11    1
    35     9     4   ar
    36    23    18   ar
    37    29    30    1
    38    25    26    1
@<TRIPOS>MOLECULE
*****
 35 38 0 0 0
SMALL
GASTEIGER

@<TRIPOS>ATOM
      1 C         142.3902  138.7868  161.5112 C.ar    1  UNL1        0.2194
      2 N         142.1496  140.0669  162.2551 N.ar    1  UNL1       -0.1988
      3 C         142.6430  141.3663  161.6912 C.ar    1  UNL1        0.1376
      4 C         143.3770  141.3857  160.3832 C.ar    1  UNL1        0.0676
      5 C         143.8704  142.6850  159.8192 C.ar    1  UNL1        0.0074
      6 C         144.6044  142.7044  158.5112 C.ar    1  UNL1        0.0193
      7 C         144.8451  141.4243  157.7673 C.ar    1  UNL1        0.0829
      8 N         144.3517  140.1249  158.3312 N.ar    1  UNL1       -0.2264
      9 C         143.6177  140.1056  159.6392 C.ar    1  UNL1        0.1678
     10 N         143.1242  138.8061  160.2032 N.ar    1  UNL1       -0.1946
     11 N         142.4023  142.6464  162.4352 N.pl3   1  UNL1       -0.2897
     12 C         141.1215  143.4009  162.2348 C.3     1  UNL1        0.1242
     13 C         140.8809  144.6810  162.9788 C.3     1  UNL1        0.1636
     14 O         141.9210  145.2065  163.9231 O.3     1  UNL1       -0.3502
     15 C         143.2019  144.4520  164.1235 C.3     1  UNL1        0.1618
     16 C         143.4426  143.1719  163.3795 C.3     1  UNL1        0.1038
     17 C         144.7234  142.4174  163.5799 C.3     1  UNL1        0.0241
     18 C         145.5791  141.4437  156.4592 C.ar    1  UNL1        0.0177
     19 C         146.8933  142.1581  156.3472 C.ar    1  UNL1        0.0046
     20 C         147.6273  142.1775  155.0392 C.ar    1  UNL1        0.0367
     21 C         147.0472  141.4824  153.8432 C.ar    1  UNL1        0.1370
     22 C         145.7330  140.7679  153.9553 C.ar    1  UNL1        0.0410
     23 C         144.9990  140.7486  155.2633 C.ar    1  UNL1        0.0027
     24 C         145.1529  140.0728  152.7594 C.3     1  UNL1        0.1666
     25 O         145.9932  139.1155  151.9675 O.3     1  UNL1       -0.3771
     26 H         146.7171  139.5986  151.5391 H       1  UNL1        0.2109
     27 O         147.7812  141.5017  152.5353 O.3     1  UNL1       -0.4717
     28 C         148.3504  142.7877  152.0137 C.3     1  UNL1        0.2525
     29 N         141.8968  137.4874  162.0752 N.pl3   1  UNL1       -0.3021
     30 H         142.1958  136.6353  161.6830 H       1  UNL1        0.1497
     31 C         140.9477  137.4862  163.2368 C.3     1  UNL1        0.1013
     32 C         141.4656  137.2732  164.6283 C.3     1  UNL1        0.0239
     33 C         139.4806  137.6981  163.0068 C.3     1  UNL1        0.1617
     34 C         137.7234  138.7425  161.4032 C.3     1  UNL1        0.1742
     35 O         138.9649  137.9283  161.6172 O.3     1  UNL1       -0.3494
@<TRIPOS>BOND
     1    34    35    1
     2    35    33    1
     3    33    31    1
     4    31    32    1
     5    31    29    1
     6    29     1    1
     7     1     2   ar
     8     2     3   ar
     9     3    11    1
    10    11    12    1
    11    12    13    1
    12    13    14    1
    13    14    15    1
    14    15    16    1
    15    16    17    1
    16     3     4   ar
    17     4     5   ar
    18     5     6   ar
    19     6     7   ar
    20     7    18    1
    21    18    19   ar
    22    19    20   ar
    23    20    21   ar
    24    21    27    1
    25    27    28    1
    26    21    22   ar
    27    22    24    1
    28    24    25    1
    29    22    23   ar
    30     7     8   ar
    31     8     9   ar
    32     9    10   ar
    33    10     1   ar
    34    16    11    1
    35     9     4   ar
    36    23    18   ar
    37    29    30    1
    38    25    26    1
@<TRIPOS>MOLECULE
*****
 35 38 0 0 0
SMALL
GASTEIGER

@<TRIPOS>ATOM
      1 C         143.8332  139.2933  161.6863 C.ar    1  UNL1        0.2194
      2 N         142.7321  140.3067  161.5828 N.ar    1  UNL1       -0.1988
      3 C         141.7542  140.2384  160.4474 C.ar    1  UNL1        0.1376
      4 C         141.8774  139.1567  159.4154 C.ar    1  UNL1        0.0676
      5 C         140.8996  139.0885  158.2801 C.ar    1  UNL1        0.0074
      6 C         141.0228  138.0069  157.2482 C.ar    1  UNL1        0.0193
      7 C         142.1239  136.9935  157.3517 C.ar    1  UNL1        0.0829
      8 N         143.1018  137.0618  158.4870 N.ar    1  UNL1       -0.2264
      9 C         142.9785  138.1434  159.5189 C.ar    1  UNL1        0.1678
     10 N         143.9564  138.2117  160.6544 N.ar    1  UNL1       -0.1946
     11 N         140.6531  141.2518  160.3440 N.pl3   1  UNL1       -0.2897
     12 C         139.3340  140.9967  161.0108 C.3     1  UNL1        0.1242
     13 C         138.2329  142.0100  160.9073 C.3     1  UNL1        0.1636
     14 O         138.4509  143.2785  160.1370 O.3     1  UNL1       -0.3502
     15 C         139.7701  143.5336  159.4701 C.3     1  UNL1        0.1618
     16 C         140.8712  142.5203  159.5736 C.3     1  UNL1        0.1038
     17 C         142.1904  142.7754  158.9068 C.3     1  UNL1        0.0241
     18 C         142.2472  135.9118  156.3197 C.ar    1  UNL1        0.0177
     19 C         141.5895  136.0737  154.9813 C.ar    1  UNL1        0.0046
     20 C         141.7127  134.9921  153.9493 C.ar    1  UNL1        0.0367
     21 C         142.4936  133.7486  154.2558 C.ar    1  UNL1        0.1370
     22 C         143.1513  133.5867  155.5943 C.ar    1  UNL1        0.0410
     23 C         143.0280  134.6683  156.6261 C.ar    1  UNL1        0.0027
     24 C         143.9321  132.3432  155.9007 C.3     1  UNL1        0.1666
     25 O         145.3926  132.4367  156.2298 O.3     1  UNL1       -0.3771
     26 H         145.8803  132.7467  155.4507 H       1  UNL1        0.2109
     27 O         142.6168  132.6669  153.2239 O.3     1  UNL1       -0.4717
     28 C         141.5090  131.6717  153.0447 C.3     1  UNL1        0.2525
     29 N         144.8110  139.3616  162.8217 N.pl3   1  UNL1       -0.3021
     30 H         145.5078  138.6722  162.9135 H       1  UNL1        0.1497
     31 C         144.7273  140.4805  163.8173 C.3     1  UNL1        0.1013
     32 C         143.8467  140.3461  165.0241 C.3     1  UNL1        0.0239
     33 C         145.5242  141.7336  163.6061 C.3     1  UNL1        0.1617
     34 C         144.4093  143.5297  162.0957 C.3     1  UNL1        0.1742
     35 O         144.8237  143.0515  163.4557 O.3     1  UNL1       -0.3494
@<TRIPOS>BOND
     1    34    35    1
     2    35    33    1
     3    33    31    1
     4    31    32    1
     5    31    29    1
     6    29     1    1
     7     1     2   ar
     8     2     3   ar
     9     3    11    1
    10    11    12    1
    11    12    13    1
    12    13    14    1
    13    14    15    1
    14    15    16    1
    15    16    17    1
    16     3     4   ar
    17     4     5   ar
    18     5     6   ar
    19     6     7   ar
    20     7    18    1
    21    18    19   ar
    22    19    20   ar
    23    20    21   ar
    24    21    27    1
    25    27    28    1
    26    21    22   ar
    27    22    24    1
    28    24    25    1
    29    22    23   ar
    30     7     8   ar
    31     8     9   ar
    32     9    10   ar
    33    10     1   ar
    34    16    11    1
    35     9     4   ar
    36    23    18   ar
    37    29    30    1
    38    25    26    1
@<TRIPOS>MOLECULE
*****
 35 38 0 0 0
SMALL
GASTEIGER

@<TRIPOS>ATOM
      1 C         142.3972  143.6846  161.7637 C.ar    1  UNL1        0.2194
      2 N         141.8296  142.3649  162.1951 N.ar    1  UNL1       -0.1988
      3 C         142.1083  141.1297  161.3910 C.ar    1  UNL1        0.1376
      4 C         142.9547  141.2143  160.1554 C.ar    1  UNL1        0.0676
      5 C         143.2334  139.9791  159.3513 C.ar    1  UNL1        0.0074
      6 C         144.0797  140.0637  158.1158 C.ar    1  UNL1        0.0193
      7 C         144.6473  141.3835  157.6844 C.ar    1  UNL1        0.0829
      8 N         144.3686  142.6186  158.4885 N.ar    1  UNL1       -0.2264
      9 C         143.5223  142.5340  159.7240 C.ar    1  UNL1        0.1678
     10 N         143.2435  143.7692  160.5282 N.ar    1  UNL1       -0.1946
     11 N         141.5408  139.8100  161.8224 N.pl3   1  UNL1       -0.2897
     12 C         140.2064  139.3619  161.3040 C.3     1  UNL1        0.1242
     13 C         139.6388  138.0422  161.7354 C.3     1  UNL1        0.1636
     14 O         140.4056  137.1705  162.6852 O.3     1  UNL1       -0.3502
     15 C         141.7400  137.6185  163.2037 C.3     1  UNL1        0.1618
     16 C         142.3076  138.9382  162.7723 C.3     1  UNL1        0.1038
     17 C         143.6419  139.3863  163.2907 C.3     1  UNL1        0.0241
     18 C         145.4937  141.4680  156.4488 C.ar    1  UNL1        0.0177
     19 C         146.8052  142.1950  156.4864 C.ar    1  UNL1        0.0046
     20 C         147.6515  142.2796  155.2508 C.ar    1  UNL1        0.0367
     21 C         147.1863  141.6371  153.9777 C.ar    1  UNL1        0.1370
     22 C         145.8748  140.9101  153.9401 C.ar    1  UNL1        0.0410
     23 C         145.0285  140.8255  155.1757 C.ar    1  UNL1        0.0027
     24 C         145.4096  140.2676  152.6670 C.3     1  UNL1        0.1666
     25 O         146.2842  139.2701  151.9672 O.3     1  UNL1       -0.3771
     26 H         147.0840  139.7128  151.6427 H       1  UNL1        0.2109
     27 O         148.0326  141.7216  152.7421 O.3     1  UNL1       -0.4717
     28 C         149.1818  142.6839  152.6846 C.3     1  UNL1        0.2525
     29 N         142.1185  144.9198  162.5679 N.pl3   1  UNL1       -0.3021
     30 H         142.8646  145.4513  162.9285 H       1  UNL1        0.1497
     31 C         140.7028  145.3452  162.8227 C.3     1  UNL1        0.1013
     32 C         140.0442  145.0155  164.1294 C.3     1  UNL1        0.0239
     33 C         139.9457  146.1003  161.7707 C.3     1  UNL1        0.1617
     34 C         140.3126  145.5207  159.2649 C.3     1  UNL1        0.1742
     35 O         139.5004  145.4017  160.5203 O.3     1  UNL1       -0.3494
@<TRIPOS>BOND
     1    34    35    1
     2    35    33    1
     3    33    31    1
     4    31    32    1
     5    31    29    1
     6    29     1    1
     7     1     2   ar
     8     2     3   ar
     9     3    11    1
    10    11    12    1
    11    12    13    1
    12    13    14    1
    13    14    15    1
    14    15    16    1
    15    16    17    1
    16     3     4   ar
    17     4     5   ar
    18     5     6   ar
    19     6     7   ar
    20     7    18    1
    21    18    19   ar
    22    19    20   ar
    23    20    21   ar
    24    21    27    1
    25    27    28    1
    26    21    22   ar
    27    22    24    1
    28    24    25    1
    29    22    23   ar
    30     7     8   ar
    31     8     9   ar
    32     9    10   ar
    33    10     1   ar
    34    16    11    1
    35     9     4   ar
    36    23    18   ar
    37    29    30    1
    38    25    26    1
@<TRIPOS>MOLECULE
*****
 35 38 0 0 0
SMALL
GASTEIGER

@<TRIPOS>ATOM
      1 C         143.3415  139.9022  158.3833 C.ar    1  UNL1        0.2194
      2 N         142.2681  139.5535  157.3953 N.ar    1  UNL1       -0.1988
      3 C         140.8835  139.2320  157.8743 C.ar    1  UNL1        0.1376
      4 C         140.5723  139.2591  159.3415 C.ar    1  UNL1        0.0676
      5 C         139.1878  138.9375  159.8206 C.ar    1  UNL1        0.0074
      6 C         138.8766  138.9646  161.2876 C.ar    1  UNL1        0.0193
      7 C         139.9500  139.3133  162.2757 C.ar    1  UNL1        0.0829
      8 N         141.3346  139.6349  161.7966 N.ar    1  UNL1       -0.2264
      9 C         141.6457  139.6078  160.3295 C.ar    1  UNL1        0.1678
     10 N         143.0304  139.9293  159.8504 N.ar    1  UNL1       -0.1946
     11 N         139.8101  138.8833  156.8863 N.pl3   1  UNL1       -0.2897
     12 C         139.6625  137.4697  156.4069 C.3     1  UNL1        0.1242
     13 C         138.5891  137.1210  155.4189 C.3     1  UNL1        0.1636
     14 O         137.6633  138.1859  154.9102 O.3     1  UNL1       -0.3502
     15 C         137.8109  139.5996  155.3896 C.3     1  UNL1        0.1618
     16 C         138.8843  139.9483  156.3776 C.3     1  UNL1        0.1038
     17 C         139.0320  141.3619  156.8570 C.3     1  UNL1        0.0241
     18 C         139.6388  139.3404  163.7428 C.ar    1  UNL1        0.0177
     19 C         140.1404  140.4682  164.5952 C.ar    1  UNL1        0.0046
     20 C         139.8292  140.4953  166.0624 C.ar    1  UNL1        0.0367
     21 C         139.0163  139.3946  166.6771 C.ar    1  UNL1        0.1370
     22 C         138.5147  138.2669  165.8246 C.ar    1  UNL1        0.0410
     23 C         138.8259  138.2398  164.3575 C.ar    1  UNL1        0.0027
     24 C         137.7019  137.1662  166.4393 C.3     1  UNL1        0.1666
     25 O         136.7203  137.4780  167.5299 O.3     1  UNL1       -0.3771
     26 H         137.1976  137.7859  168.3162 H       1  UNL1        0.2109
     27 O         138.7051  139.4217  168.1442 O.3     1  UNL1       -0.4717
     28 C         139.4693  140.3350  169.0562 C.3     1  UNL1        0.2525
     29 N         144.7261  140.2238  157.9042 N.pl3   1  UNL1       -0.3021
     30 H         145.4313  139.5378  157.9405 H       1  UNL1        0.1497
     31 C         145.0363  141.5906  157.3697 C.3     1  UNL1        0.1013
     32 C         144.3586  142.7953  157.9524 C.3     1  UNL1        0.0239
     33 C         146.0240  141.7527  156.2525 C.3     1  UNL1        0.1617
     34 C         148.5247  141.8380  155.5529 C.3     1  UNL1        0.1742
     35 O         147.4461  142.1207  156.5563 O.3     1  UNL1       -0.3494
@<TRIPOS>BOND
     1    34    35    1
     2    35    33    1
     3    33    31    1
     4    31    32    1
     5    31    29    1
     6    29     1    1
     7     1     2   ar
     8     2     3   ar
     9     3    11    1
    10    11    12    1
    11    12    13    1
    12    13    14    1
    13    14    15    1
    14    15    16    1
    15    16    17    1
    16     3     4   ar
    17     4     5   ar
    18     5     6   ar
    19     6     7   ar
    20     7    18    1
    21    18    19   ar
    22    19    20   ar
    23    20    21   ar
    24    21    27    1
    25    27    28    1
    26    21    22   ar
    27    22    24    1
    28    24    25    1
    29    22    23   ar
    30     7     8   ar
    31     8     9   ar
    32     9    10   ar
    33    10     1   ar
    34    16    11    1
    35     9     4   ar
    36    23    18   ar
    37    29    30    1
    38    25    26    1
@<TRIPOS>MOLECULE
*****
 35 38 0 0 0
SMALL
GASTEIGER

@<TRIPOS>ATOM
      1 C         139.9452  138.5240  158.0628 C.ar    1  UNL1        0.2194
      2 N         140.2528  139.9018  157.5557 N.ar    1  UNL1       -0.1988
      3 C         140.3299  141.0536  158.5134 C.ar    1  UNL1        0.1376
      4 C         140.0994  140.8278  159.9784 C.ar    1  UNL1        0.0676
      5 C         140.1766  141.9796  160.9361 C.ar    1  UNL1        0.0074
      6 C         139.9461  141.7537  162.4009 C.ar    1  UNL1        0.0193
      7 C         139.6385  140.3759  162.9080 C.ar    1  UNL1        0.0829
      8 N         139.5614  139.2241  161.9503 N.ar    1  UNL1       -0.2264
      9 C         139.7919  139.4500  160.4855 C.ar    1  UNL1        0.1678
     10 N         139.7147  138.2981  159.5277 N.ar    1  UNL1       -0.1946
     11 N         140.6375  142.4314  158.0063 N.pl3   1  UNL1       -0.2897
     12 C         139.5216  143.3463  157.5968 C.3     1  UNL1        0.1242
     13 C         139.8292  144.7241  157.0897 C.3     1  UNL1        0.1636
     14 O         141.2526  145.1869  156.9920 O.3     1  UNL1       -0.3502
     15 C         142.3686  144.2720  157.4016 C.3     1  UNL1        0.1618
     16 C         142.0610  142.8942  157.9087 C.3     1  UNL1        0.1038
     17 C         143.1768  141.9793  158.3182 C.3     1  UNL1        0.0241
     18 C         139.4081  140.1500  164.3730 C.ar    1  UNL1        0.0177
     19 C         139.9541  141.1218  165.3767 C.ar    1  UNL1        0.0046
     20 C         139.7237  140.8959  166.8416 C.ar    1  UNL1        0.0367
     21 C         138.9472  139.6982  167.3027 C.ar    1  UNL1        0.1370
     22 C         138.4011  138.7264  166.2989 C.ar    1  UNL1        0.0410
     23 C         138.6316  138.9524  164.8341 C.ar    1  UNL1        0.0027
     24 C         137.6246  137.5288  166.7600 C.3     1  UNL1        0.1666
     25 O         136.5452  137.6857  167.7897 O.3     1  UNL1       -0.3771
     26 H         136.9399  137.9578  168.6330 H       1  UNL1        0.2109
     27 O         138.7167  139.4723  168.7676 O.3     1  UNL1       -0.4717
     28 C         139.5740  140.1743  169.7786 C.3     1  UNL1        0.2525
     29 N         139.8681  137.3722  157.1050 N.pl3   1  UNL1       -0.3021
     30 H         138.9953  136.9748  156.8822 H       1  UNL1        0.1497
     31 C         141.1207  136.8258  156.4867 C.3     1  UNL1        0.1013
     32 C         141.0626  136.1442  155.1518 C.3     1  UNL1        0.0239
     33 C         142.4316  136.9610  157.2034 C.3     1  UNL1        0.1617
     34 C         143.6361  138.9031  155.9677 C.3     1  UNL1        0.1742
     35 O         143.6318  137.4925  156.4776 O.3     1  UNL1       -0.3494
@<TRIPOS>BOND
     1    34    35    1
     2    35    33    1
     3    33    31    1
     4    31    32    1
     5    31    29    1
     6    29     1    1
     7     1     2   ar
     8     2     3   ar
     9     3    11    1
    10    11    12    1
    11    12    13    1
    12    13    14    1
    13    14    15    1
    14    15    16    1
    15    16    17    1
    16     3     4   ar
    17     4     5   ar
    18     5     6   ar
    19     6     7   ar
    20     7    18    1
    21    18    19   ar
    22    19    20   ar
    23    20    21   ar
    24    21    27    1
    25    27    28    1
    26    21    22   ar
    27    22    24    1
    28    24    25    1
    29    22    23   ar
    30     7     8   ar
    31     8     9   ar
    32     9    10   ar
    33    10     1   ar
    34    16    11    1
    35     9     4   ar
    36    23    18   ar
    37    29    30    1
    38    25    26    1
@<TRIPOS>MOLECULE
*****
 35 38 0 0 0
SMALL
GASTEIGER

@<TRIPOS>ATOM
      1 C         139.8019  138.0710  157.4547 C.ar    1  UNL1        0.2194
      2 N         139.4537  139.3848  156.8201 N.ar    1  UNL1       -0.1988
      3 C         139.0822  140.5573  157.6787 C.ar    1  UNL1        0.1376
      4 C         139.0589  140.4160  159.1719 C.ar    1  UNL1        0.0676
      5 C         138.6874  141.5885  160.0304 C.ar    1  UNL1        0.0074
      6 C         138.6641  141.4472  161.5236 C.ar    1  UNL1        0.0193
      7 C         139.0123  140.1334  162.1581 C.ar    1  UNL1        0.0829
      8 N         139.3838  138.9609  161.2995 N.ar    1  UNL1       -0.2264
      9 C         139.4071  139.1022  159.8064 C.ar    1  UNL1        0.1678
     10 N         139.7786  137.9297  158.9478 N.ar    1  UNL1       -0.1946
     11 N         138.7341  141.8711  157.0441 N.pl3   1  UNL1       -0.2897
     12 C         139.7711  142.9493  156.9346 C.3     1  UNL1        0.1242
     13 C         139.4229  144.2631  156.3001 C.3     1  UNL1        0.1636
     14 O         138.0377  144.4988  155.7750 O.3     1  UNL1       -0.3502
     15 C         137.0006  143.4205  155.8845 C.3     1  UNL1        0.1618
     16 C         137.3488  142.1067  156.5191 C.3     1  UNL1        0.1038
     17 C         136.3118  141.0285  156.6286 C.3     1  UNL1        0.0241
     18 C         138.9890  139.9921  163.6513 C.ar    1  UNL1        0.0177
     19 C         139.5026  141.1035  164.5179 C.ar    1  UNL1        0.0046
     20 C         139.4793  140.9622  166.0111 C.ar    1  UNL1        0.0367
     21 C         138.9423  139.7095  166.6376 C.ar    1  UNL1        0.1370
     22 C         138.4286  138.5981  165.7709 C.ar    1  UNL1        0.0410
     23 C         138.4520  138.7395  164.2778 C.ar    1  UNL1        0.0027
     24 C         137.8917  137.3455  166.3974 C.3     1  UNL1        0.1666
     25 O         136.8395  137.4314  167.4630 O.3     1  UNL1       -0.3771
     26 H         137.2105  137.8603  168.2500 H       1  UNL1        0.2109
     27 O         138.9189  139.5682  168.1307 O.3     1  UNL1       -0.4717
     28 C         139.8598  140.3754  168.9752 C.3     1  UNL1        0.2525
     29 N         140.1734  136.8984  156.5960 N.pl3   1  UNL1       -0.3021
     30 H         139.4693  136.3407  156.1930 H       1  UNL1        0.1497
     31 C         141.6177  136.5757  156.3514 C.3     1  UNL1        0.1013
     32 C         142.6815  137.2082  157.1989 C.3     1  UNL1        0.0239
     33 C         141.9982  135.6203  155.2593 C.3     1  UNL1        0.1617
     34 C         141.4692  133.0855  155.4714 C.3     1  UNL1        0.1742
     35 O         142.4345  134.2264  155.6006 O.3     1  UNL1       -0.3494
@<TRIPOS>BOND
     1    34    35    1
     2    35    33    1
     3    33    31    1
     4    31    32    1
     5    31    29    1
     6    29     1    1
     7     1     2   ar
     8     2     3   ar
     9     3    11    1
    10    11    12    1
    11    12    13    1
    12    13    14    1
    13    14    15    1
    14    15    16    1
    15    16    17    1
    16     3     4   ar
    17     4     5   ar
    18     5     6   ar
    19     6     7   ar
    20     7    18    1
    21    18    19   ar
    22    19    20   ar
    23    20    21   ar
    24    21    27    1
    25    27    28    1
    26    21    22   ar
    27    22    24    1
    28    24    25    1
    29    22    23   ar
    30     7     8   ar
    31     8     9   ar
    32     9    10   ar
    33    10     1   ar
    34    16    11    1
    35     9     4   ar
    36    23    18   ar
    37    29    30    1
    38    25    26    1
@<TRIPOS>MOLECULE
*****
 35 38 0 0 0
SMALL
GASTEIGER

@<TRIPOS>ATOM
      1 C         139.8379  142.2281  160.7059 C.ar    1  UNL1        0.2194
      2 N         141.0122  142.1431  161.6352 N.ar    1  UNL1       -0.1988
      3 C         142.0533  141.0824  161.4332 C.ar    1  UNL1        0.1376
      4 C         141.9201  140.1065  160.3017 C.ar    1  UNL1        0.0676
      5 C         142.9612  139.0458  160.0997 C.ar    1  UNL1        0.0074
      6 C         142.8279  138.0700  158.9683 C.ar    1  UNL1        0.0193
      7 C         141.6536  138.1550  158.0390 C.ar    1  UNL1        0.0829
      8 N         140.6125  139.2157  158.2410 N.ar    1  UNL1       -0.2264
      9 C         140.7457  140.1915  159.3724 C.ar    1  UNL1        0.1678
     10 N         139.7046  141.2523  159.5745 N.ar    1  UNL1       -0.1946
     11 N         143.2277  140.9974  162.3625 N.pl3   1  UNL1       -0.2897
     12 C         144.4427  141.8414  162.1149 C.3     1  UNL1        0.1242
     13 C         145.6171  141.7565  163.0442 C.3     1  UNL1        0.1636
     14 O         145.5764  140.8275  164.2211 O.3     1  UNL1       -0.3502
     15 C         144.3614  139.9834  164.4688 C.3     1  UNL1        0.1618
     16 C         143.1870  140.0683  163.5395 C.3     1  UNL1        0.1038
     17 C         141.9720  139.2243  163.7871 C.3     1  UNL1        0.0241
     18 C         141.5203  137.1791  156.9076 C.ar    1  UNL1        0.0177
     19 C         140.4264  137.3491  155.8954 C.ar    1  UNL1        0.0046
     20 C         140.2932  136.3732  154.7640 C.ar    1  UNL1        0.0367
     21 C         141.2539  135.2275  154.6448 C.ar    1  UNL1        0.1370
     22 C         142.3479  135.0575  155.6570 C.ar    1  UNL1        0.0410
     23 C         142.4810  136.0334  156.7883 C.ar    1  UNL1        0.0027
     24 C         143.3086  133.9118  155.5378 C.3     1  UNL1        0.1666
     25 O         144.4747  133.8101  156.4757 O.3     1  UNL1       -0.3771
     26 H         145.0828  134.5489  156.3169 H       1  UNL1        0.2109
     27 O         141.1207  134.2517  153.5134 O.3     1  UNL1       -0.4717
     28 C         141.5478  134.6443  152.1302 C.3     1  UNL1        0.2525
     29 N         138.7967  143.2890  160.9080 N.pl3   1  UNL1       -0.3021
     30 H         138.3157  143.6605  160.1335 H       1  UNL1        0.1497
     31 C         138.4886  143.7837  162.2901 C.3     1  UNL1        0.1013
     32 C         139.0908  145.0676  162.7788 C.3     1  UNL1        0.0239
     33 C         137.5781  142.9944  163.1836 C.3     1  UNL1        0.1617
     34 C         137.8090  140.4073  163.1265 C.3     1  UNL1        0.1742
     35 O         137.0699  141.6543  162.7410 O.3     1  UNL1       -0.3494
@<TRIPOS>BOND
     1    34    35    1
     2    35    33    1
     3    33    31    1
     4    31    32    1
     5    31    29    1
     6    29     1    1
     7     1     2   ar
     8     2     3   ar
     9     3    11    1
    10    11    12    1
    11    12    13    1
    12    13    14    1
    13    14    15    1
    14    15    16    1
    15    16    17    1
    16     3     4   ar
    17     4     5   ar
    18     5     6   ar
    19     6     7   ar
    20     7    18    1
    21    18    19   ar
    22    19    20   ar
    23    20    21   ar
    24    21    27    1
    25    27    28    1
    26    21    22   ar
    27    22    24    1
    28    24    25    1
    29    22    23   ar
    30     7     8   ar
    31     8     9   ar
    32     9    10   ar
    33    10     1   ar
    34    16    11    1
    35     9     4   ar
    36    23    18   ar
    37    29    30    1
    38    25    26    1
