@<TRIPOS>MOLECULE
*****
 45 51 0 0 0
SMALL
GASTEIGER

@<TRIPOS>ATOM
      1 C         143.2900  141.2198  158.1569 C.ar    1  UNL1        0.0907
      2 C         143.8871  142.3745  157.4084 C.ar    1  UNL1        0.1496
      3 O         143.5277  143.6351  158.1374 O.2     1  UNL1       -0.4533
      4 C         142.7085  143.2597  159.3365 C.ar    1  UNL1        0.1467
      5 C         142.0773  144.0841  160.4190 C.ar    1  UNL1        0.0536
      6 C         141.2992  143.4158  161.5136 C.ar    1  UNL1        0.0730
      7 C         141.1523  141.9231  161.5256 C.ar    1  UNL1        0.0327
      8 C         141.7835  141.0986  160.4431 C.ar    1  UNL1        0.0061
      9 C         142.5616  141.7669  159.3486 C.ar    1  UNL1        0.0420
     10 C         140.3742  141.2548  162.6201 C.ar    1  UNL1        0.0825
     11 C         139.1530  140.4495  162.2881 C.ar    1  UNL1        0.0192
     12 C         138.3749  139.7813  163.3826 C.ar    1  UNL1        0.0031
     13 C         138.8179  139.9183  164.8091 C.ar    1  UNL1        0.0206
     14 C         138.0398  139.2500  165.9036 C.ar    1  UNL1        0.0205
     15 C         138.4828  139.3870  167.3301 C.ar    1  UNL1        0.0802
     16 N         139.7040  140.1923  167.6621 N.ar    1  UNL1       -0.3034
     17 C         140.3774  140.5032  168.9659 C.ar    1  UNL1        0.0662
     18 C         140.0573  140.1140  170.3787 C.ar    1  UNL1        0.0177
     19 C         140.9315  140.5852  171.5029 C.ar    1  UNL1        0.0038
     20 C         142.1258  141.4456  171.2142 C.ar    1  UNL1        0.0297
     21 C         142.4458  141.8348  169.8014 C.ar    1  UNL1        0.1415
     22 F         143.6402  142.6953  169.5127 F       1  UNL1       -0.2041
     23 C         141.5716  141.3636  168.6772 C.ar    1  UNL1        0.0451
     24 C         141.6364  141.5845  167.1950 C.ar    1  UNL1        0.0227
     25 C         140.4821  140.8606  166.5677 C.ar    1  UNL1        0.0818
     26 C         140.0391  140.7236  165.1411 C.ar    1  UNL1        0.0973
     27 N         140.8172  141.3919  164.0466 N.ar    1  UNL1       -0.2438
     28 C         144.7008  142.2842  156.1514 C.ar    1  UNL1        0.0349
     29 C         144.0804  142.6292  154.8300 C.ar    1  UNL1        0.0053
     30 C         144.8940  142.5390  153.5731 C.ar    1  UNL1        0.0297
     31 C         146.3280  142.1038  153.6376 C.ar    1  UNL1        0.1401
     32 F         147.1416  142.0136  152.3806 F       1  UNL1       -0.2042
     33 C         146.9484  141.7589  154.9590 C.ar    1  UNL1        0.0297
     34 C         146.1348  141.8491  156.2159 C.ar    1  UNL1        0.0053
     35 C         143.3107  137.9031  155.9778 C.3     1  UNL1        0.1109
     36 N         143.1991  139.3506  156.3547 N.am    1  UNL1       -0.2991
     37 C         143.4017  139.7723  157.7799 C.2     1  UNL1        0.2490
     38 O         143.7159  138.7464  158.8281 O.2     1  UNL1       -0.2700
     39 H         142.9928  140.0239  155.6667 H       1  UNL1        0.1498
     40 N         140.6680  144.2403  162.5961 N.pl3   1  UNL1       -0.1924
     41 C         141.5284  145.0501  163.5203 C.3     1  UNL1        0.1388
     42 S         139.1764  144.2550  162.7545 S.O2    1  UNL1        0.0588
     43 C         137.6849  144.2698  162.9127 C.3     1  UNL1        0.1999
     44 O         139.3345  144.2318  164.2459 O.2     1  UNL1       -0.1542
     45 O         139.0184  144.2783  161.2630 O.2     1  UNL1       -0.1542
@<TRIPOS>BOND
     1    35    36    1
     2    36    37   am
     3    37    38    2
     4    37     1    1
     5     1     2   ar
     6     2    28    1
     7    28    29   ar
     8    29    30   ar
     9    30    31   ar
    10    31    32    1
    11    31    33   ar
    12    33    34   ar
    13     2     3   ar
    14     3     4   ar
    15     4     5   ar
    16     5     6   ar
    17     6    40    1
    18    40    41    1
    19    40    42    1
    20    42    43    1
    21    42    44    2
    22    42    45    2
    23     6     7   ar
    24     7    10    1
    25    10    11   ar
    26    11    12   ar
    27    12    13   ar
    28    13    14   ar
    29    14    15   ar
    30    15    16   ar
    31    16    17   ar
    32    17    18   ar
    33    18    19   ar
    34    19    20   ar
    35    20    21   ar
    36    21    22    1
    37    21    23   ar
    38    23    24   ar
    39    24    25   ar
    40    25    26   ar
    41    26    27   ar
    42     7     8   ar
    43     8     9   ar
    44     9     1   ar
    45    34    28   ar
    46     9     4   ar
    47    27    10   ar
    48    26    13   ar
    49    25    16   ar
    50    23    17   ar
    51    36    39    1
@<TRIPOS>MOLECULE
*****
 45 51 0 0 0
SMALL
GASTEIGER

@<TRIPOS>ATOM
      1 C         141.8945  139.5233  163.9550 C.ar    1  UNL1        0.0907
      2 C         142.6191  140.5713  164.7467 C.ar    1  UNL1        0.1496
      3 O         143.3511  141.4570  163.7825 O.2     1  UNL1       -0.4533
      4 C         143.0789  140.9565  162.3949 C.ar    1  UNL1        0.1467
      5 C         143.5344  141.4345  161.0481 C.ar    1  UNL1        0.0536
      6 C         143.0896  140.7174  159.8078 C.ar    1  UNL1        0.0730
      7 C         142.1894  139.5224  159.9145 C.ar    1  UNL1        0.0327
      8 C         141.7339  139.0443  161.2613 C.ar    1  UNL1        0.0061
      9 C         142.1786  139.7613  162.5015 C.ar    1  UNL1        0.0420
     10 C         141.7447  138.8053  158.6743 C.ar    1  UNL1        0.0825
     11 C         140.6809  139.4040  157.8025 C.ar    1  UNL1        0.0192
     12 C         140.2362  138.6870  156.5623 C.ar    1  UNL1        0.0031
     13 C         140.8551  137.3713  156.1940 C.ar    1  UNL1        0.0206
     14 C         140.4104  136.6542  154.9537 C.ar    1  UNL1        0.0205
     15 C         141.0294  135.3385  154.5854 C.ar    1  UNL1        0.0802
     16 N         142.0931  134.7398  155.4572 N.ar    1  UNL1       -0.3034
     17 C         142.8796  133.4671  155.3503 C.ar    1  UNL1        0.0662
     18 C         142.8685  132.3624  154.3356 C.ar    1  UNL1        0.0177
     19 C         143.7882  131.1882  154.4949 C.ar    1  UNL1        0.0038
     20 C         144.7190  131.1187  155.6691 C.ar    1  UNL1        0.0297
     21 C         144.7302  132.2233  156.6839 C.ar    1  UNL1        0.1415
     22 F         145.6611  132.1536  157.8581 F       1  UNL1       -0.2041
     23 C         143.8105  133.3975  156.5245 C.ar    1  UNL1        0.0451
     24 C         143.5993  134.6273  157.3570 C.ar    1  UNL1        0.0227
     25 C         142.5379  135.4568  156.6973 C.ar    1  UNL1        0.0818
     26 C         141.9189  136.7726  157.0657 C.ar    1  UNL1        0.0973
     27 N         142.3636  137.4896  158.3059 N.ar    1  UNL1       -0.2438
     28 C         142.6129  140.7092  166.2403 C.ar    1  UNL1        0.0349
     29 C         142.6384  139.4850  167.1067 C.ar    1  UNL1        0.0053
     30 C         142.6322  139.6229  168.6003 C.ar    1  UNL1        0.0297
     31 C         142.6004  140.9850  169.2275 C.ar    1  UNL1        0.1401
     32 F         142.5941  141.1230  170.7212 F       1  UNL1       -0.2042
     33 C         142.5748  142.2093  168.3612 C.ar    1  UNL1        0.0297
     34 C         142.5811  142.0714  166.8676 C.ar    1  UNL1        0.0053
     35 C         138.7612  137.6237  165.4794 C.3     1  UNL1        0.1109
     36 N         139.6193  138.7176  164.9164 N.am    1  UNL1       -0.2991
     37 C         141.0364  138.4294  164.5180 C.2     1  UNL1        0.2490
     38 O         141.5953  137.0472  164.6825 O.2     1  UNL1       -0.2700
     39 H         139.2524  139.6248  164.8084 H       1  UNL1        0.1498
     40 N         143.5452  141.1954  158.4610 N.pl3   1  UNL1       -0.1924
     41 C         144.3003  140.2707  157.5529 C.3     1  UNL1        0.1388
     42 S         143.2455  142.5982  158.0223 S.O2    1  UNL1        0.0588
     43 C         142.9459  144.0010  157.5835 C.3     1  UNL1        0.1999
     44 O         141.7759  142.3068  158.0940 O.2     1  UNL1       -0.1542
     45 O         144.7151  142.8897  157.9505 O.2     1  UNL1       -0.1542
@<TRIPOS>BOND
     1    35    36    1
     2    36    37   am
     3    37    38    2
     4    37     1    1
     5     1     2   ar
     6     2    28    1
     7    28    29   ar
     8    29    30   ar
     9    30    31   ar
    10    31    32    1
    11    31    33   ar
    12    33    34   ar
    13     2     3   ar
    14     3     4   ar
    15     4     5   ar
    16     5     6   ar
    17     6    40    1
    18    40    41    1
    19    40    42    1
    20    42    43    1
    21    42    44    2
    22    42    45    2
    23     6     7   ar
    24     7    10    1
    25    10    11   ar
    26    11    12   ar
    27    12    13   ar
    28    13    14   ar
    29    14    15   ar
    30    15    16   ar
    31    16    17   ar
    32    17    18   ar
    33    18    19   ar
    34    19    20   ar
    35    20    21   ar
    36    21    22    1
    37    21    23   ar
    38    23    24   ar
    39    24    25   ar
    40    25    26   ar
    41    26    27   ar
    42     7     8   ar
    43     8     9   ar
    44     9     1   ar
    45    34    28   ar
    46     9     4   ar
    47    27    10   ar
    48    26    13   ar
    49    25    16   ar
    50    23    17   ar
    51    36    39    1
@<TRIPOS>MOLECULE
*****
 45 51 0 0 0
SMALL
GASTEIGER

@<TRIPOS>ATOM
      1 C         141.3310  140.0966  162.6957 C.ar    1  UNL1        0.0907
      2 C         141.8857  141.3282  163.3482 C.ar    1  UNL1        0.1496
      3 O         142.5239  142.1696  162.2830 O.2     1  UNL1       -0.4533
      4 C         142.3636  141.4582  160.9722 C.ar    1  UNL1        0.1467
      5 C         142.7937  141.8114  159.5793 C.ar    1  UNL1        0.0536
      6 C         142.4865  140.8834  158.4415 C.ar    1  UNL1        0.0730
      7 C         141.7493  139.6023  158.6966 C.ar    1  UNL1        0.0327
      8 C         141.3192  139.2491  160.0895 C.ar    1  UNL1        0.0061
      9 C         141.6263  140.1770  161.2273 C.ar    1  UNL1        0.0420
     10 C         141.4421  138.6743  157.5588 C.ar    1  UNL1        0.0825
     11 C         140.4170  139.0586  156.5334 C.ar    1  UNL1        0.0192
     12 C         140.1098  138.1307  155.3956 C.ar    1  UNL1        0.0031
     13 C         140.8277  136.8185  155.2832 C.ar    1  UNL1        0.0206
     14 C         140.5206  135.8905  154.1454 C.ar    1  UNL1        0.0205
     15 C         141.2385  134.5783  154.0330 C.ar    1  UNL1        0.0802
     16 N         142.2636  134.1940  155.0584 N.ar    1  UNL1       -0.3034
     17 C         143.1258  132.9758  155.2082 C.ar    1  UNL1        0.0662
     18 C         143.2545  131.7296  154.3831 C.ar    1  UNL1        0.0177
     19 C         144.2232  130.6585  154.7884 C.ar    1  UNL1        0.0038
     20 C         145.0632  130.8335  156.0187 C.ar    1  UNL1        0.0297
     21 C         144.9345  132.0796  156.8438 C.ar    1  UNL1        0.1415
     22 F         145.7746  132.2545  158.0742 F       1  UNL1       -0.2041
     23 C         143.9658  133.1507  156.4385 C.ar    1  UNL1        0.0451
     24 C         143.6228  134.4772  157.0491 C.ar    1  UNL1        0.0227
     25 C         142.5708  135.1219  156.1962 C.ar    1  UNL1        0.0818
     26 C         141.8528  136.4342  156.3086 C.ar    1  UNL1        0.0973
     27 N         142.1600  137.3621  157.4464 N.ar    1  UNL1       -0.2438
     28 C         141.8147  141.6600  164.8094 C.ar    1  UNL1        0.0349
     29 C         142.9038  141.2057  165.7354 C.ar    1  UNL1        0.0053
     30 C         142.8328  141.5374  167.1965 C.ar    1  UNL1        0.0297
     31 C         141.6727  142.3234  167.7316 C.ar    1  UNL1        0.1401
     32 F         141.6017  142.6552  169.1927 F       1  UNL1       -0.2042
     33 C         140.5836  142.7777  166.8056 C.ar    1  UNL1        0.0297
     34 C         140.6546  142.4459  165.3445 C.ar    1  UNL1        0.0053
     35 C         138.6787  138.1614  164.9251 C.3     1  UNL1        0.1109
     36 N         139.4018  139.2773  164.2310 N.am    1  UNL1       -0.2991
     37 C         140.6079  138.9807  163.3899 C.2     1  UNL1        0.2490
     38 O         141.0907  137.5682  163.2429 O.2     1  UNL1       -0.2700
     39 H         139.0848  140.2044  164.3275 H       1  UNL1        0.1498
     40 N         142.9166  141.2366  157.0486 N.pl3   1  UNL1       -0.1924
     41 C         142.2724  142.3873  156.3338 C.3     1  UNL1        0.1388
     42 S         143.9910  140.4391  156.3704 S.O2    1  UNL1        0.0588
     43 C         145.0653  139.6417  155.6923 C.3     1  UNL1        0.1999
     44 O         143.2154  140.4851  155.0874 O.2     1  UNL1       -0.1542
     45 O         144.7666  140.3932  157.6534 O.2     1  UNL1       -0.1542
@<TRIPOS>BOND
     1    35    36    1
     2    36    37   am
     3    37    38    2
     4    37     1    1
     5     1     2   ar
     6     2    28    1
     7    28    29   ar
     8    29    30   ar
     9    30    31   ar
    10    31    32    1
    11    31    33   ar
    12    33    34   ar
    13     2     3   ar
    14     3     4   ar
    15     4     5   ar
    16     5     6   ar
    17     6    40    1
    18    40    41    1
    19    40    42    1
    20    42    43    1
    21    42    44    2
    22    42    45    2
    23     6     7   ar
    24     7    10    1
    25    10    11   ar
    26    11    12   ar
    27    12    13   ar
    28    13    14   ar
    29    14    15   ar
    30    15    16   ar
    31    16    17   ar
    32    17    18   ar
    33    18    19   ar
    34    19    20   ar
    35    20    21   ar
    36    21    22    1
    37    21    23   ar
    38    23    24   ar
    39    24    25   ar
    40    25    26   ar
    41    26    27   ar
    42     7     8   ar
    43     8     9   ar
    44     9     1   ar
    45    34    28   ar
    46     9     4   ar
    47    27    10   ar
    48    26    13   ar
    49    25    16   ar
    50    23    17   ar
    51    36    39    1
@<TRIPOS>MOLECULE
*****
 45 51 0 0 0
SMALL
GASTEIGER

@<TRIPOS>ATOM
      1 C         139.7094  141.2097  160.6215 C.ar    1  UNL1        0.0907
      2 C         140.1493  142.5551  161.1179 C.ar    1  UNL1        0.1496
      3 O         141.0646  143.1518  160.0903 O.2     1  UNL1       -0.4533
      4 C         141.1905  142.1753  158.9588 C.ar    1  UNL1        0.1467
      5 C         141.9596  142.2239  157.6719 C.ar    1  UNL1        0.0536
      6 C         141.8911  141.0722  156.7132 C.ar    1  UNL1        0.0730
      7 C         141.0536  139.8719  157.0415 C.ar    1  UNL1        0.0327
      8 C         140.2845  139.8233  158.3284 C.ar    1  UNL1        0.0061
      9 C         140.3529  140.9749  159.2870 C.ar    1  UNL1        0.0420
     10 C         140.9851  138.7202  156.0828 C.ar    1  UNL1        0.0825
     11 C         140.1317  138.8177  154.8531 C.ar    1  UNL1        0.0192
     12 C         140.0632  137.6661  153.8945 C.ar    1  UNL1        0.0031
     13 C         140.8481  136.4169  154.1656 C.ar    1  UNL1        0.0206
     14 C         140.7796  135.2652  153.2070 C.ar    1  UNL1        0.0205
     15 C         141.5645  134.0160  153.4781 C.ar    1  UNL1        0.0802
     16 N         142.4178  133.9185  154.7078 N.ar    1  UNL1       -0.3034
     17 C         143.2962  132.8232  155.2357 C.ar    1  UNL1        0.0662
     18 C         143.6183  131.4548  154.7124 C.ar    1  UNL1        0.0177
     19 C         144.5518  130.5611  155.4739 C.ar    1  UNL1        0.0038
     20 C         145.1631  131.0358  156.7588 C.ar    1  UNL1        0.0297
     21 C         144.8410  132.4042  157.2821 C.ar    1  UNL1        0.1415
     22 F         145.4524  132.8789  158.5671 F       1  UNL1       -0.2041
     23 C         143.9075  133.2978  156.5206 C.ar    1  UNL1        0.0451
     24 C         143.4070  134.6866  156.7868 C.ar    1  UNL1        0.0227
     25 C         142.4863  135.0701  155.6664 C.ar    1  UNL1        0.0818
     26 C         141.7014  136.3194  155.3954 C.ar    1  UNL1        0.0973
     27 N         141.7699  137.4710  156.3540 N.ar    1  UNL1       -0.2438
     28 C         139.7447  143.1919  162.4145 C.ar    1  UNL1        0.0349
     29 C         140.7356  143.3072  163.5347 C.ar    1  UNL1        0.0053
     30 C         140.3311  143.9439  164.8312 C.ar    1  UNL1        0.0297
     31 C         138.9358  144.4655  165.0074 C.ar    1  UNL1        0.1401
     32 F         138.5312  145.1023  166.3039 F       1  UNL1       -0.2042
     33 C         137.9450  144.3502  163.8871 C.ar    1  UNL1        0.0297
     34 C         138.3494  143.7134  162.5907 C.ar    1  UNL1        0.0053
     35 C         138.3745  137.9904  162.5200 C.3     1  UNL1        0.1109
     36 N         139.2961  138.9352  161.8071 N.am    1  UNL1       -0.2991
     37 C         138.7879  140.2649  161.3343 C.2     1  UNL1        0.2490
     38 O         137.3582  140.6498  161.5743 O.2     1  UNL1       -0.2700
     39 H         140.2345  138.6825  161.6496 H       1  UNL1        0.1498
     40 N         142.6602  141.1208  155.4263 N.pl3   1  UNL1       -0.1924
     41 C         142.1611  141.9570  154.2854 C.3     1  UNL1        0.1388
     42 S         143.9285  140.3332  155.2803 S.O2    1  UNL1        0.0588
     43 C         145.1967  139.5457  155.1343 C.3     1  UNL1        0.1999
     44 O         144.3509  140.7585  156.6553 O.2     1  UNL1       -0.1542
     45 O         143.5060  139.9080  153.9053 O.2     1  UNL1       -0.1542
@<TRIPOS>BOND
     1    35    36    1
     2    36    37   am
     3    37    38    2
     4    37     1    1
     5     1     2   ar
     6     2    28    1
     7    28    29   ar
     8    29    30   ar
     9    30    31   ar
    10    31    32    1
    11    31    33   ar
    12    33    34   ar
    13     2     3   ar
    14     3     4   ar
    15     4     5   ar
    16     5     6   ar
    17     6    40    1
    18    40    41    1
    19    40    42    1
    20    42    43    1
    21    42    44    2
    22    42    45    2
    23     6     7   ar
    24     7    10    1
    25    10    11   ar
    26    11    12   ar
    27    12    13   ar
    28    13    14   ar
    29    14    15   ar
    30    15    16   ar
    31    16    17   ar
    32    17    18   ar
    33    18    19   ar
    34    19    20   ar
    35    20    21   ar
    36    21    22    1
    37    21    23   ar
    38    23    24   ar
    39    24    25   ar
    40    25    26   ar
    41    26    27   ar
    42     7     8   ar
    43     8     9   ar
    44     9     1   ar
    45    34    28   ar
    46     9     4   ar
    47    27    10   ar
    48    26    13   ar
    49    25    16   ar
    50    23    17   ar
    51    36    39    1
@<TRIPOS>MOLECULE
*****
 45 51 0 0 0
SMALL
GASTEIGER

@<TRIPOS>ATOM
      1 C         141.2508  141.3333  164.3216 C.ar    1  UNL1        0.0907
      2 C         141.9947  142.3114  165.1818 C.ar    1  UNL1        0.1496
      3 O         142.7890  143.2103  164.2812 O.2     1  UNL1       -0.4533
      4 C         142.5360  142.7878  162.8644 C.ar    1  UNL1        0.1467
      5 C         143.0485  143.3095  161.5547 C.ar    1  UNL1        0.0536
      6 C         142.6102  142.6711  160.2700 C.ar    1  UNL1        0.0730
      7 C         141.6596  141.5111  160.2949 C.ar    1  UNL1        0.0327
      8 C         141.1472  140.9894  161.6046 C.ar    1  UNL1        0.0061
      9 C         141.5854  141.6277  162.8893 C.ar    1  UNL1        0.0420
     10 C         141.2214  140.8728  159.0102 C.ar    1  UNL1        0.0825
     11 C         140.2636  141.5894  158.1051 C.ar    1  UNL1        0.0192
     12 C         139.8253  140.9511  156.8204 C.ar    1  UNL1        0.0031
     13 C         140.3449  139.5962  156.4408 C.ar    1  UNL1        0.0206
     14 C         139.9067  138.9578  155.1560 C.ar    1  UNL1        0.0205
     15 C         140.4263  137.6029  154.7763 C.ar    1  UNL1        0.0802
     16 N         141.3841  136.8863  155.6813 N.ar    1  UNL1       -0.3034
     17 C         142.0599  135.5516  155.5728 C.ar    1  UNL1        0.0662
     18 C         142.0065  134.4820  154.5225 C.ar    1  UNL1        0.0177
     19 C         142.8090  133.2258  154.6898 C.ar    1  UNL1        0.0038
     20 C         143.6649  133.0392  155.9074 C.ar    1  UNL1        0.0297
     21 C         143.7183  134.1088  156.9577 C.ar    1  UNL1        0.1415
     22 F         144.5743  133.9222  158.1754 F       1  UNL1       -0.2041
     23 C         142.9158  135.3650  156.7904 C.ar    1  UNL1        0.0451
     24 C         142.7690  136.5844  157.6515 C.ar    1  UNL1        0.0227
     25 C         141.8224  137.5246  156.9660 C.ar    1  UNL1        0.0818
     26 C         141.3028  138.8796  157.3458 C.ar    1  UNL1        0.0973
     27 N         141.7410  139.5179  158.6305 N.ar    1  UNL1       -0.2438
     28 C         141.9518  142.3787  166.6798 C.ar    1  UNL1        0.0349
     29 C         140.6679  142.7143  167.3789 C.ar    1  UNL1        0.0053
     30 C         140.6250  142.7816  168.8768 C.ar    1  UNL1        0.0297
     31 C         141.8660  142.5133  169.6754 C.ar    1  UNL1        0.1401
     32 F         141.8231  142.5806  171.1734 F       1  UNL1       -0.2042
     33 C         143.1499  142.1778  168.9762 C.ar    1  UNL1        0.0297
     34 C         143.1929  142.1105  167.4784 C.ar    1  UNL1        0.0053
     35 C         137.9974  139.4942  165.6566 C.3     1  UNL1        0.1109
     36 N         138.9147  140.5766  165.1700 N.am    1  UNL1       -0.2991
     37 C         140.3335  140.2509  164.8081 C.2     1  UNL1        0.2490
     38 O         140.8348  138.8427  164.9328 O.2     1  UNL1       -0.2700
     39 H         138.5856  141.5009  165.0882 H       1  UNL1        0.1498
     40 N         143.1227  143.1928  158.9603 N.pl3   1  UNL1       -0.1924
     41 C         144.3663  142.6112  158.3562 C.3     1  UNL1        0.1388
     42 S         142.3914  144.2963  158.2547 S.O2    1  UNL1        0.0588
     43 C         141.6602  145.3996  157.5491 C.3     1  UNL1        0.1999
     44 O         142.0023  144.8849  159.5784 O.2     1  UNL1       -0.1542
     45 O         142.7805  143.7077  156.9311 O.2     1  UNL1       -0.1542
@<TRIPOS>BOND
     1    35    36    1
     2    36    37   am
     3    37    38    2
     4    37     1    1
     5     1     2   ar
     6     2    28    1
     7    28    29   ar
     8    29    30   ar
     9    30    31   ar
    10    31    32    1
    11    31    33   ar
    12    33    34   ar
    13     2     3   ar
    14     3     4   ar
    15     4     5   ar
    16     5     6   ar
    17     6    40    1
    18    40    41    1
    19    40    42    1
    20    42    43    1
    21    42    44    2
    22    42    45    2
    23     6     7   ar
    24     7    10    1
    25    10    11   ar
    26    11    12   ar
    27    12    13   ar
    28    13    14   ar
    29    14    15   ar
    30    15    16   ar
    31    16    17   ar
    32    17    18   ar
    33    18    19   ar
    34    19    20   ar
    35    20    21   ar
    36    21    22    1
    37    21    23   ar
    38    23    24   ar
    39    24    25   ar
    40    25    26   ar
    41    26    27   ar
    42     7     8   ar
    43     8     9   ar
    44     9     1   ar
    45    34    28   ar
    46     9     4   ar
    47    27    10   ar
    48    26    13   ar
    49    25    16   ar
    50    23    17   ar
    51    36    39    1
@<TRIPOS>MOLECULE
*****
 45 51 0 0 0
SMALL
GASTEIGER

@<TRIPOS>ATOM
      1 C         142.3455  133.8144  155.8727 C.ar    1  UNL1        0.0907
      2 C         141.6488  133.3734  154.6196 C.ar    1  UNL1        0.1496
      3 O         140.9214  134.5565  154.0528 O.2     1  UNL1       -0.4533
      4 C         141.1686  135.7287  154.9556 C.ar    1  UNL1        0.1467
      5 C         140.7059  137.1544  154.8988 C.ar    1  UNL1        0.0536
      6 C         141.1234  138.1215  155.9668 C.ar    1  UNL1        0.0730
      7 C         142.0035  137.6628  157.0915 C.ar    1  UNL1        0.0327
      8 C         142.4662  136.2370  157.1483 C.ar    1  UNL1        0.0061
      9 C         142.0487  135.2700  156.0804 C.ar    1  UNL1        0.0420
     10 C         142.4210  138.6298  158.1595 C.ar    1  UNL1        0.0825
     11 C         143.4763  139.6561  157.8711 C.ar    1  UNL1        0.0192
     12 C         143.8938  140.6232  158.9390 C.ar    1  UNL1        0.0031
     13 C         143.2561  140.5639  160.2954 C.ar    1  UNL1        0.0206
     14 C         143.6736  141.5310  161.3634 C.ar    1  UNL1        0.0205
     15 C         143.0358  141.4717  162.7197 C.ar    1  UNL1        0.0802
     16 N         141.9806  140.4454  163.0082 N.ar    1  UNL1       -0.3034
     17 C         141.1800  140.1482  164.2413 C.ar    1  UNL1        0.0662
     18 C         141.1639  140.7767  165.6032 C.ar    1  UNL1        0.0177
     19 C         140.2355  140.2545  166.6593 C.ar    1  UNL1        0.0038
     20 C         139.3232  139.1038  166.3535 C.ar    1  UNL1        0.0297
     21 C         139.3393  138.4752  164.9916 C.ar    1  UNL1        0.1415
     22 F         138.4270  137.3244  164.6858 F       1  UNL1       -0.2041
     23 C         140.2677  138.9974  163.9355 C.ar    1  UNL1        0.0451
     24 C         140.5045  138.5835  162.5133 C.ar    1  UNL1        0.0227
     25 C         141.5631  139.4784  161.9402 C.ar    1  UNL1        0.0818
     26 C         142.2008  139.5376  160.5838 C.ar    1  UNL1        0.0973
     27 N         141.7833  138.5706  159.5159 N.ar    1  UNL1       -0.2438
     28 C         141.6749  131.9919  154.0358 C.ar    1  UNL1        0.0349
     29 C         142.8424  131.5514  153.2034 C.ar    1  UNL1        0.0053
     30 C         142.8685  130.1700  152.6196 C.ar    1  UNL1        0.0297
     31 C         141.7272  129.2290  152.8682 C.ar    1  UNL1        0.1401
     32 F         141.7533  127.8475  152.2844 F       1  UNL1       -0.2042
     33 C         140.5597  129.6695  153.7006 C.ar    1  UNL1        0.0297
     34 C         140.5335  131.0510  154.2844 C.ar    1  UNL1        0.0053
     35 C         145.4162  132.5318  158.0349 C.3     1  UNL1        0.1109
     36 N         144.5711  133.3949  157.1457 N.am    1  UNL1       -0.2991
     37 C         143.1906  132.9513  156.7619 C.2     1  UNL1        0.2490
     38 O         142.6552  131.6445  157.2675 O.2     1  UNL1       -0.2700
     39 H         144.9226  134.2526  156.8139 H       1  UNL1        0.1498
     40 N         140.6608  139.5472  155.9101 N.pl3   1  UNL1       -0.1924
     41 C         141.2770  140.4970  154.9262 C.3     1  UNL1        0.1388
     42 S         139.5819  140.0231  156.8372 S.O2    1  UNL1        0.0588
     43 C         138.5030  140.4990  157.7643 C.3     1  UNL1        0.1999
     44 O         138.7600  138.8141  156.5015 O.2     1  UNL1       -0.1542
     45 O         140.4037  141.2321  157.1730 O.2     1  UNL1       -0.1542
@<TRIPOS>BOND
     1    35    36    1
     2    36    37   am
     3    37    38    2
     4    37     1    1
     5     1     2   ar
     6     2    28    1
     7    28    29   ar
     8    29    30   ar
     9    30    31   ar
    10    31    32    1
    11    31    33   ar
    12    33    34   ar
    13     2     3   ar
    14     3     4   ar
    15     4     5   ar
    16     5     6   ar
    17     6    40    1
    18    40    41    1
    19    40    42    1
    20    42    43    1
    21    42    44    2
    22    42    45    2
    23     6     7   ar
    24     7    10    1
    25    10    11   ar
    26    11    12   ar
    27    12    13   ar
    28    13    14   ar
    29    14    15   ar
    30    15    16   ar
    31    16    17   ar
    32    17    18   ar
    33    18    19   ar
    34    19    20   ar
    35    20    21   ar
    36    21    22    1
    37    21    23   ar
    38    23    24   ar
    39    24    25   ar
    40    25    26   ar
    41    26    27   ar
    42     7     8   ar
    43     8     9   ar
    44     9     1   ar
    45    34    28   ar
    46     9     4   ar
    47    27    10   ar
    48    26    13   ar
    49    25    16   ar
    50    23    17   ar
    51    36    39    1
@<TRIPOS>MOLECULE
*****
 45 51 0 0 0
SMALL
GASTEIGER

@<TRIPOS>ATOM
      1 C         141.2550  138.1715  157.7048 C.ar    1  UNL1        0.0907
      2 C         142.2220  137.1156  157.2576 C.ar    1  UNL1        0.1496
      3 O         143.2619  136.9566  158.3268 O.2     1  UNL1       -0.4533
      4 C         142.9376  137.9142  159.4349 C.ar    1  UNL1        0.1467
      5 C         143.6114  138.1995  160.7443 C.ar    1  UNL1        0.0536
      6 C         143.0449  139.2356  161.6693 C.ar    1  UNL1        0.0730
      7 C         141.8045  139.9864  161.2849 C.ar    1  UNL1        0.0327
      8 C         141.1307  139.7011  159.9755 C.ar    1  UNL1        0.0061
      9 C         141.6972  138.6651  159.0505 C.ar    1  UNL1        0.0420
     10 C         141.2380  141.0226  162.2099 C.ar    1  UNL1        0.0825
     11 C         140.5976  142.2580  161.6499 C.ar    1  UNL1        0.0192
     12 C         140.0310  143.2941  162.5748 C.ar    1  UNL1        0.0031
     13 C         140.1050  143.0948  164.0596 C.ar    1  UNL1        0.0206
     14 C         139.5384  144.1309  164.9846 C.ar    1  UNL1        0.0205
     15 C         139.6123  143.9316  166.4694 C.ar    1  UNL1        0.0802
     16 N         140.2528  142.6962  167.0294 N.ar    1  UNL1       -0.3034
     17 C         140.4700  142.2285  168.4380 C.ar    1  UNL1        0.0662
     18 C         140.1202  142.8382  169.7631 C.ar    1  UNL1        0.0177
     19 C         140.4711  142.1227  171.0339 C.ar    1  UNL1        0.0038
     20 C         141.1719  140.7976  170.9795 C.ar    1  UNL1        0.0297
     21 C         141.5217  140.1879  169.6544 C.ar    1  UNL1        0.1415
     22 F         142.2225  138.8627  169.6001 F       1  UNL1       -0.2041
     23 C         141.1707  140.9034  168.3836 C.ar    1  UNL1        0.0451
     24 C         141.3866  140.5521  166.9414 C.ar    1  UNL1        0.0227
     25 C         140.8193  141.6601  166.1045 C.ar    1  UNL1        0.0818
     26 C         140.7454  141.8594  164.6196 C.ar    1  UNL1        0.0973
     27 N         141.3119  140.8232  163.6947 N.ar    1  UNL1       -0.2438
     28 C         142.1600  136.3527  155.9675 C.ar    1  UNL1        0.0349
     29 C         142.1471  134.8529  155.9831 C.ar    1  UNL1        0.0053
     30 C         142.0851  134.0900  154.6931 C.ar    1  UNL1        0.0297
     31 C         142.0360  134.8269  153.3876 C.ar    1  UNL1        0.1401
     32 F         141.9740  134.0640  152.0975 F       1  UNL1       -0.2042
     33 C         142.0488  136.3268  153.3720 C.ar    1  UNL1        0.0297
     34 C         142.1108  137.0897  154.6620 C.ar    1  UNL1        0.0053
     35 C         138.7475  140.5705  155.7794 C.3     1  UNL1        0.1109
     36 N         139.9463  140.0922  156.5436 N.am    1  UNL1       -0.2991
     37 C         140.0562  138.6498  156.9406 C.2     1  UNL1        0.2490
     38 O         138.9672  137.6859  156.5733 O.2     1  UNL1       -0.2700
     39 H         140.6610  140.7249  156.7847 H       1  UNL1        0.1498
     40 N         143.7187  139.5209  162.9787 N.pl3   1  UNL1       -0.1924
     41 C         143.4028  138.6840  164.1828 C.3     1  UNL1        0.1388
     42 S         144.7085  140.6431  163.0840 S.O2    1  UNL1        0.0588
     43 C         145.6983  141.7652  163.1894 C.3     1  UNL1        0.1999
     44 O         144.8618  140.6480  161.5919 O.2     1  UNL1       -0.1542
     45 O         144.5552  140.6382  164.5761 O.2     1  UNL1       -0.1542
@<TRIPOS>BOND
     1    35    36    1
     2    36    37   am
     3    37    38    2
     4    37     1    1
     5     1     2   ar
     6     2    28    1
     7    28    29   ar
     8    29    30   ar
     9    30    31   ar
    10    31    32    1
    11    31    33   ar
    12    33    34   ar
    13     2     3   ar
    14     3     4   ar
    15     4     5   ar
    16     5     6   ar
    17     6    40    1
    18    40    41    1
    19    40    42    1
    20    42    43    1
    21    42    44    2
    22    42    45    2
    23     6     7   ar
    24     7    10    1
    25    10    11   ar
    26    11    12   ar
    27    12    13   ar
    28    13    14   ar
    29    14    15   ar
    30    15    16   ar
    31    16    17   ar
    32    17    18   ar
    33    18    19   ar
    34    19    20   ar
    35    20    21   ar
    36    21    22    1
    37    21    23   ar
    38    23    24   ar
    39    24    25   ar
    40    25    26   ar
    41    26    27   ar
    42     7     8   ar
    43     8     9   ar
    44     9     1   ar
    45    34    28   ar
    46     9     4   ar
    47    27    10   ar
    48    26    13   ar
    49    25    16   ar
    50    23    17   ar
    51    36    39    1
@<TRIPOS>MOLECULE
*****
 45 51 0 0 0
SMALL
GASTEIGER

@<TRIPOS>ATOM
      1 C         141.7423  141.3735  163.4003 C.ar    1  UNL1        0.0907
      2 C         141.3679  140.1505  164.1841 C.ar    1  UNL1        0.1496
      3 O         141.0788  139.0466  163.2106 O.2     1  UNL1       -0.4533
      4 C         141.2745  139.5872  161.8251 C.ar    1  UNL1        0.1467
      5 C         141.1323  138.9558  160.4720 C.ar    1  UNL1        0.0536
      6 C         141.4002  139.7626  159.2360 C.ar    1  UNL1        0.0730
      7 C         141.8102  141.2006  159.3533 C.ar    1  UNL1        0.0327
      8 C         141.9524  141.8320  160.7065 C.ar    1  UNL1        0.0061
      9 C         141.6846  141.0254  161.9424 C.ar    1  UNL1        0.0420
     10 C         142.0781  142.0074  158.1173 C.ar    1  UNL1        0.0825
     11 C         140.9877  142.8445  157.5172 C.ar    1  UNL1        0.0192
     12 C         141.2555  143.6513  156.2814 C.ar    1  UNL1        0.0031
     13 C         142.6137  143.6208  155.6456 C.ar    1  UNL1        0.0206
     14 C         142.8816  144.4275  154.4097 C.ar    1  UNL1        0.0205
     15 C         144.2398  144.3971  153.7739 C.ar    1  UNL1        0.0802
     16 N         145.3303  143.5599  154.3740 N.ar    1  UNL1       -0.3034
     17 C         146.7576  143.3328  153.9725 C.ar    1  UNL1        0.0662
     18 C         147.5773  143.8660  152.8351 C.ar    1  UNL1        0.0177
     19 C         149.0113  143.4522  152.6854 C.ar    1  UNL1        0.0038
     20 C         149.6255  142.5051  153.6731 C.ar    1  UNL1        0.0297
     21 C         148.8058  141.9719  154.8106 C.ar    1  UNL1        0.1415
     22 F         149.4202  141.0248  155.7984 F       1  UNL1       -0.2041
     23 C         147.3718  142.3857  154.9603 C.ar    1  UNL1        0.0451
     24 C         146.3242  142.0275  155.9723 C.ar    1  UNL1        0.0227
     25 C         145.0624  142.7532  155.6099 C.ar    1  UNL1        0.0818
     26 C         143.7042  142.7836  156.2457 C.ar    1  UNL1        0.0973
     27 N         143.4363  141.9769  157.4816 N.ar    1  UNL1       -0.2438
     28 C         141.2954  140.0493  165.6789 C.ar    1  UNL1        0.0349
     29 C         139.9798  140.2194  166.3792 C.ar    1  UNL1        0.0053
     30 C         139.9072  140.1182  167.8740 C.ar    1  UNL1        0.0297
     31 C         141.1502  139.8470  168.6685 C.ar    1  UNL1        0.1401
     32 F         141.0777  139.7458  170.1634 F       1  UNL1       -0.2042
     33 C         142.4658  139.6770  167.9683 C.ar    1  UNL1        0.0297
     34 C         142.5384  139.7782  166.4735 C.ar    1  UNL1        0.0053
     35 C         143.8167  144.6500  164.2437 C.3     1  UNL1        0.1109
     36 N         143.4491  143.3135  163.6703 N.am    1  UNL1       -0.2991
     37 C         142.1099  142.7099  163.9737 C.2     1  UNL1        0.2490
     38 O         141.1383  143.4427  164.8506 O.2     1  UNL1       -0.2700
     39 H         144.0869  142.8326  163.0948 H       1  UNL1        0.1498
     40 N         141.2580  139.1312  157.8828 N.pl3   1  UNL1       -0.1924
     41 C         140.2896  139.6993  156.8881 C.3     1  UNL1        0.1388
     42 S         142.0842  137.9316  157.5243 S.O2    1  UNL1        0.0588
     43 C         142.9104  136.7321  157.1659 C.3     1  UNL1        0.1999
     44 O         140.8393  137.1899  157.1370 O.2     1  UNL1       -0.1542
     45 O         143.3291  138.6733  157.9117 O.2     1  UNL1       -0.1542
@<TRIPOS>BOND
     1    35    36    1
     2    36    37   am
     3    37    38    2
     4    37     1    1
     5     1     2   ar
     6     2    28    1
     7    28    29   ar
     8    29    30   ar
     9    30    31   ar
    10    31    32    1
    11    31    33   ar
    12    33    34   ar
    13     2     3   ar
    14     3     4   ar
    15     4     5   ar
    16     5     6   ar
    17     6    40    1
    18    40    41    1
    19    40    42    1
    20    42    43    1
    21    42    44    2
    22    42    45    2
    23     6     7   ar
    24     7    10    1
    25    10    11   ar
    26    11    12   ar
    27    12    13   ar
    28    13    14   ar
    29    14    15   ar
    30    15    16   ar
    31    16    17   ar
    32    17    18   ar
    33    18    19   ar
    34    19    20   ar
    35    20    21   ar
    36    21    22    1
    37    21    23   ar
    38    23    24   ar
    39    24    25   ar
    40    25    26   ar
    41    26    27   ar
    42     7     8   ar
    43     8     9   ar
    44     9     1   ar
    45    34    28   ar
    46     9     4   ar
    47    27    10   ar
    48    26    13   ar
    49    25    16   ar
    50    23    17   ar
    51    36    39    1
@<TRIPOS>MOLECULE
*****
 45 51 0 0 0
SMALL
GASTEIGER

@<TRIPOS>ATOM
      1 C         140.2214  140.6555  161.5249 C.ar    1  UNL1        0.0907
      2 C         139.7957  139.3190  162.0566 C.ar    1  UNL1        0.1496
      3 O         140.0211  138.2988  160.9804 O.2     1  UNL1       -0.4533
      4 C         140.5860  139.0047  159.7835 C.ar    1  UNL1        0.1467
      5 C         141.0037  138.5094  158.4307 C.ar    1  UNL1        0.0536
      6 C         141.5452  139.4707  157.4143 C.ar    1  UNL1        0.0730
      7 C         141.6690  140.9272  157.7509 C.ar    1  UNL1        0.0327
      8 C         141.2513  141.4225  159.1038 C.ar    1  UNL1        0.0061
      9 C         140.7098  140.4613  160.1200 C.ar    1  UNL1        0.0420
     10 C         142.2105  141.8885  156.7346 C.ar    1  UNL1        0.0825
     11 C         141.2990  142.8897  156.0890 C.ar    1  UNL1        0.0192
     12 C         141.8404  143.8509  155.0727 C.ar    1  UNL1        0.0031
     13 C         143.2933  143.8109  154.7021 C.ar    1  UNL1        0.0206
     14 C         143.8348  144.7722  153.6857 C.ar    1  UNL1        0.0205
     15 C         145.2877  144.7323  153.3151 C.ar    1  UNL1        0.0802
     16 N         146.1992  143.7311  153.9607 N.ar    1  UNL1       -0.3034
     17 C         147.6647  143.4564  153.7976 C.ar    1  UNL1        0.0662
     18 C         148.7146  144.0901  152.9337 C.ar    1  UNL1        0.0177
     19 C         150.1288  143.5928  152.9853 C.ar    1  UNL1        0.0038
     20 C         150.4932  142.4618  153.9008 C.ar    1  UNL1        0.0297
     21 C         149.4433  141.8281  154.7646 C.ar    1  UNL1        0.1415
     22 F         149.8077  140.6971  155.6802 F       1  UNL1       -0.2041
     23 C         148.0291  142.3254  154.7131 C.ar    1  UNL1        0.0451
     24 C         146.7887  141.9011  155.4420 C.ar    1  UNL1        0.0227
     25 C         145.6577  142.7698  154.9769 C.ar    1  UNL1        0.0818
     26 C         144.2048  142.8097  155.3477 C.ar    1  UNL1        0.0973
     27 N         143.6634  141.8485  156.3639 N.ar    1  UNL1       -0.2438
     28 C         139.2419  139.0500  163.4245 C.ar    1  UNL1        0.0349
     29 C         139.3203  137.6701  164.0073 C.ar    1  UNL1        0.0053
     30 C         138.7665  137.4011  165.3751 C.ar    1  UNL1        0.0297
     31 C         138.1344  138.5120  166.1601 C.ar    1  UNL1        0.1401
     32 F         137.5806  138.2430  167.5280 F       1  UNL1       -0.2042
     33 C         138.0561  139.8919  165.5773 C.ar    1  UNL1        0.0297
     34 C         138.6098  140.1610  164.2095 C.ar    1  UNL1        0.0053
     35 C         139.0086  144.2351  162.7355 C.3     1  UNL1        0.1109
     36 N         139.0621  142.9330  161.9928 N.am    1  UNL1       -0.2991
     37 C         140.1679  141.9576  162.2677 C.2     1  UNL1        0.2490
     38 O         141.2203  142.2843  163.2853 O.2     1  UNL1       -0.2700
     39 H         138.3713  142.7186  161.3248 H       1  UNL1        0.1498
     40 N         141.9629  138.9754  156.0615 N.pl3   1  UNL1       -0.1924
     41 C         141.3838  139.5950  154.8243 C.3     1  UNL1        0.1388
     42 S         142.9598  137.8605  155.9459 S.O2    1  UNL1        0.0588
     43 C         143.9566  136.7456  155.8303 C.3     1  UNL1        0.1999
     44 O         144.0089  138.7340  156.5674 O.2     1  UNL1       -0.1542
     45 O         141.9107  136.9870  155.3244 O.2     1  UNL1       -0.1542
@<TRIPOS>BOND
     1    35    36    1
     2    36    37   am
     3    37    38    2
     4    37     1    1
     5     1     2   ar
     6     2    28    1
     7    28    29   ar
     8    29    30   ar
     9    30    31   ar
    10    31    32    1
    11    31    33   ar
    12    33    34   ar
    13     2     3   ar
    14     3     4   ar
    15     4     5   ar
    16     5     6   ar
    17     6    40    1
    18    40    41    1
    19    40    42    1
    20    42    43    1
    21    42    44    2
    22    42    45    2
    23     6     7   ar
    24     7    10    1
    25    10    11   ar
    26    11    12   ar
    27    12    13   ar
    28    13    14   ar
    29    14    15   ar
    30    15    16   ar
    31    16    17   ar
    32    17    18   ar
    33    18    19   ar
    34    19    20   ar
    35    20    21   ar
    36    21    22    1
    37    21    23   ar
    38    23    24   ar
    39    24    25   ar
    40    25    26   ar
    41    26    27   ar
    42     7     8   ar
    43     8     9   ar
    44     9     1   ar
    45    34    28   ar
    46     9     4   ar
    47    27    10   ar
    48    26    13   ar
    49    25    16   ar
    50    23    17   ar
    51    36    39    1
