@<TRIPOS>MOLECULE
*****
 28 31 0 0 0
SMALL
GASTEIGER

@<TRIPOS>ATOM
      1 N         140.1697  139.6149  164.9800 N.3     1  UNL1       -0.2727
      2 C         140.2836  138.8954  163.6688 C.3     1  UNL1        0.0613
      3 C         139.4145  137.6745  163.7330 C.3     1  UNL1        0.0175
      4 C         138.7634  137.6396  165.0838 C.3     1  UNL1        0.0175
      5 C         139.2302  138.8388  165.8546 C.3     1  UNL1        0.0613
      6 C         139.8582  140.1070  166.3800 C.3     1  UNL1        0.0595
      7 C         140.7733  140.7735  165.3959 C.3     1  UNL1        0.1686
      8 C         140.9860  140.1677  164.0403 C.3     1  UNL1        0.0595
      9 C         142.1633  140.8363  166.1132 C.3     1  UNL1        0.0222
     10 C         140.8721  140.8872  165.3515 C.3     1  UNL1        0.0801
     11 C         140.2831  142.2104  164.9612 C.ar    1  UNL1       -0.0078
     12 C         141.1685  143.2971  164.4270 C.ar    1  UNL1       -0.0030
     13 C         140.5795  144.6203  164.0367 C.ar    1  UNL1       -0.0003
     14 C         139.1053  144.8569  164.1807 C.ar    1  UNL1       -0.0000
     15 C         138.2200  143.7702  164.7150 C.ar    1  UNL1       -0.0003
     16 C         138.8089  142.4470  165.1052 C.ar    1  UNL1       -0.0030
     17 O         141.4756  142.0459  165.7674 O.3     1  UNL1       -0.4791
     18 C         141.7881  142.3378  167.2052 C.ar    1  UNL1        0.1385
     19 C         143.1443  142.0145  167.7585 C.ar    1  UNL1        0.0369
     20 C         143.4567  142.3064  169.1962 C.ar    1  UNL1        0.0033
     21 C         142.4130  142.9216  170.0806 C.ar    1  UNL1        0.0047
     22 C         141.0568  143.2448  169.5273 C.ar    1  UNL1        0.0561
     23 C         140.7443  142.9529  168.0895 C.ar    1  UNL1        0.0414
     24 C         140.0131  143.8600  170.4117 C.2     1  UNL1        0.2428
     25 N         139.1469  142.9860  171.2695 N.am    1  UNL1       -0.3253
     26 O         139.8355  145.3493  170.4383 O.2     1  UNL1       -0.2704
     27 H         139.2635  142.0086  171.2521 H       1  UNL1        0.1453
     28 H         138.4619  143.3897  171.8500 H       1  UNL1        0.1453
@<TRIPOS>BOND
     1     9    10    1
     2    10    11    1
     3    11    12   ar
     4    12    13   ar
     5    13    14   ar
     6    14    15   ar
     7    15    16   ar
     8    10     1    1
     9     1     2    1
    10     2     3    1
    11     3     4    1
    12     5     4    1
    13     5     6    1
    14     6     7    1
    15     7    17    1
    16    17    18    1
    17    18    19   ar
    18    19    20   ar
    19    20    21   ar
    20    21    22   ar
    21    22    24    1
    22    24    25   am
    23    24    26    2
    24    22    23   ar
    25     7     8    1
    26    16    11   ar
    27     5     1    1
    28    23    18   ar
    29     8     2    1
    30    25    27    1
    31    25    28    1
@<TRIPOS>MOLECULE
*****
 28 31 0 0 0
SMALL
GASTEIGER

@<TRIPOS>ATOM
      1 N         143.5921  141.7641  164.8155 N.3     1  UNL1       -0.2727
      2 C         144.7089  142.5822  164.2381 C.3     1  UNL1        0.0613
      3 C         145.7449  141.6393  163.7017 C.3     1  UNL1        0.0175
      4 C         145.2683  140.2384  163.9477 C.3     1  UNL1        0.0175
      5 C         143.9378  140.3156  164.6360 C.3     1  UNL1        0.0613
      6 C         142.6394  140.6921  165.3079 C.3     1  UNL1        0.0595
      7 C         142.4301  142.1734  165.4169 C.3     1  UNL1        0.1686
      8 C         143.4648  143.1185  164.8820 C.3     1  UNL1        0.0595
      9 C         142.2765  142.4416  166.9511 C.3     1  UNL1        0.0222
     10 C         142.3480  142.3004  165.4594 C.3     1  UNL1        0.0801
     11 C         141.1753  142.6955  164.6117 C.ar    1  UNL1       -0.0078
     12 C         140.5778  144.0646  164.7490 C.ar    1  UNL1       -0.0030
     13 C         139.4052  144.4596  163.9012 C.ar    1  UNL1       -0.0003
     14 C         138.8299  143.4857  162.9161 C.ar    1  UNL1       -0.0000
     15 C         139.4274  142.1166  162.7787 C.ar    1  UNL1       -0.0003
     16 C         140.6000  141.7215  163.6265 C.ar    1  UNL1       -0.0030
     17 O         141.1859  142.7097  166.0608 O.3     1  UNL1       -0.4791
     18 C         140.5519  141.9685  167.2004 C.ar    1  UNL1        0.1385
     19 C         139.9425  140.6174  166.9698 C.ar    1  UNL1        0.0369
     20 C         139.3086  139.8762  168.1093 C.ar    1  UNL1        0.0033
     21 C         139.2841  140.4860  169.4796 C.ar    1  UNL1        0.0047
     22 C         139.8935  141.8370  169.7102 C.ar    1  UNL1        0.0561
     23 C         140.5275  142.5783  168.5706 C.ar    1  UNL1        0.0414
     24 C         139.8691  142.4468  171.0804 C.2     1  UNL1        0.2428
     25 N         138.8265  143.4675  171.4286 N.am    1  UNL1       -0.3253
     26 O         140.8872  142.0359  172.1026 O.2     1  UNL1       -0.2704
     27 H         138.1583  143.7373  170.7578 H       1  UNL1        0.1453
     28 H         138.8104  143.8677  172.3280 H       1  UNL1        0.1453
@<TRIPOS>BOND
     1     9    10    1
     2    10    11    1
     3    11    12   ar
     4    12    13   ar
     5    13    14   ar
     6    14    15   ar
     7    15    16   ar
     8    10     1    1
     9     1     2    1
    10     2     3    1
    11     3     4    1
    12     5     4    1
    13     5     6    1
    14     6     7    1
    15     7    17    1
    16    17    18    1
    17    18    19   ar
    18    19    20   ar
    19    20    21   ar
    20    21    22   ar
    21    22    24    1
    22    24    25   am
    23    24    26    2
    24    22    23   ar
    25     7     8    1
    26    16    11   ar
    27     5     1    1
    28    23    18   ar
    29     8     2    1
    30    25    27    1
    31    25    28    1
@<TRIPOS>MOLECULE
*****
 28 31 0 0 0
SMALL
GASTEIGER

@<TRIPOS>ATOM
      1 N         142.8762  141.4681  164.3962 N.3     1  UNL1       -0.2727
      2 C         143.2996  140.9489  163.0541 C.3     1  UNL1        0.0613
      3 C         144.7417  141.3086  162.8518 C.3     1  UNL1        0.0175
      4 C         145.2095  142.0501  164.0689 C.3     1  UNL1        0.0175
      5 C         144.0566  142.1486  165.0234 C.3     1  UNL1        0.0613
      6 C         142.7457  142.0958  165.7703 C.3     1  UNL1        0.0595
      7 C         141.6583  141.3851  165.0203 C.3     1  UNL1        0.1686
      8 C         141.9353  140.8116  163.6622 C.3     1  UNL1        0.0595
      9 C         141.2191  140.1967  165.9414 C.3     1  UNL1        0.0222
     10 C         141.5118  141.3307  165.0043 C.3     1  UNL1        0.0801
     11 C         140.4403  142.3275  164.6752 C.ar    1  UNL1       -0.0078
     12 C         139.0552  141.8573  164.3424 C.ar    1  UNL1       -0.0030
     13 C         137.9837  142.8542  164.0133 C.ar    1  UNL1       -0.0003
     14 C         138.2972  144.3210  164.0171 C.ar    1  UNL1       -0.0000
     15 C         139.6822  144.7911  164.3499 C.ar    1  UNL1       -0.0003
     16 C         140.7538  143.7944  164.6789 C.ar    1  UNL1       -0.0030
     17 O         140.2940  141.2477  165.6284 O.3     1  UNL1       -0.4791
     18 C         140.1281  141.3013  167.1183 C.ar    1  UNL1        0.1385
     19 C         139.5154  140.1421  167.8468 C.ar    1  UNL1        0.0369
     20 C         139.3495  140.1956  169.3366 C.ar    1  UNL1        0.0033
     21 C         139.7964  141.4083  170.0979 C.ar    1  UNL1        0.0047
     22 C         140.4091  142.5675  169.3693 C.ar    1  UNL1        0.0561
     23 C         140.5749  142.5140  167.8795 C.ar    1  UNL1        0.0414
     24 C         140.8559  143.7803  170.1307 C.2     1  UNL1        0.2428
     25 N         139.9235  144.9424  170.3044 N.am    1  UNL1       -0.3253
     26 O         142.2351  143.8309  170.7183 O.2     1  UNL1       -0.2704
     27 H         139.0183  144.9092  169.9187 H       1  UNL1        0.1453
     28 H         140.2168  145.7384  170.8041 H       1  UNL1        0.1453
@<TRIPOS>BOND
     1     9    10    1
     2    10    11    1
     3    11    12   ar
     4    12    13   ar
     5    13    14   ar
     6    14    15   ar
     7    15    16   ar
     8    10     1    1
     9     1     2    1
    10     2     3    1
    11     3     4    1
    12     5     4    1
    13     5     6    1
    14     6     7    1
    15     7    17    1
    16    17    18    1
    17    18    19   ar
    18    19    20   ar
    19    20    21   ar
    20    21    22   ar
    21    22    24    1
    22    24    25   am
    23    24    26    2
    24    22    23   ar
    25     7     8    1
    26    16    11   ar
    27     5     1    1
    28    23    18   ar
    29     8     2    1
    30    25    27    1
    31    25    28    1
@<TRIPOS>MOLECULE
*****
 28 31 0 0 0
SMALL
GASTEIGER

@<TRIPOS>ATOM
      1 N         139.3700  139.0406  163.8098 N.3     1  UNL1       -0.2727
      2 C         139.0271  137.7582  163.1113 C.3     1  UNL1        0.0613
      3 C         138.0950  138.0807  161.9812 C.3     1  UNL1        0.0175
      4 C         137.8618  139.5625  161.9813 C.3     1  UNL1        0.0175
      5 C         138.6498  140.1557  163.1115 C.3     1  UNL1        0.0613
      6 C         139.5275  140.4669  164.2997 C.3     1  UNL1        0.0595
      7 C         140.1816  139.2548  164.8938 C.3     1  UNL1        0.1686
      8 C         139.9314  137.9004  164.2996 C.3     1  UNL1        0.0595
      9 C         139.6970  139.1980  166.3825 C.3     1  UNL1        0.0222
     10 C         140.2743  139.1828  164.9981 C.3     1  UNL1        0.0801
     11 C         141.7560  139.3098  164.8020 C.ar    1  UNL1       -0.0078
     12 C         142.2976  140.2470  163.7635 C.ar    1  UNL1       -0.0030
     13 C         143.7793  140.3739  163.5675 C.ar    1  UNL1       -0.0003
     14 C         144.7194  139.5637  164.4098 C.ar    1  UNL1       -0.0000
     15 C         144.1779  138.6265  165.4483 C.ar    1  UNL1       -0.0003
     16 C         142.6962  138.4995  165.6444 C.ar    1  UNL1       -0.0030
     17 O         141.0860  139.3970  166.0821 O.3     1  UNL1       -0.4791
     18 C         140.8501  140.4947  167.0769 C.ar    1  UNL1        0.1385
     19 C         140.7484  141.9177  166.6136 C.ar    1  UNL1        0.0369
     20 C         140.5125  143.0152  167.6084 C.ar    1  UNL1        0.0033
     21 C         140.3783  142.6898  169.0665 C.ar    1  UNL1        0.0047
     22 C         140.4800  141.2668  169.5298 C.ar    1  UNL1        0.0561
     23 C         140.7159  140.1692  168.5350 C.ar    1  UNL1        0.0414
     24 C         140.3458  140.9414  170.9879 C.2     1  UNL1        0.2428
     25 N         139.9745  139.5523  171.4153 N.am    1  UNL1       -0.3253
     26 O         140.5828  142.0051  172.0187 O.2     1  UNL1       -0.2704
     27 H         139.8189  138.8542  170.7388 H       1  UNL1        0.1453
     28 H         139.8864  139.3388  172.3723 H       1  UNL1        0.1453
@<TRIPOS>BOND
     1     9    10    1
     2    10    11    1
     3    11    12   ar
     4    12    13   ar
     5    13    14   ar
     6    14    15   ar
     7    15    16   ar
     8    10     1    1
     9     1     2    1
    10     2     3    1
    11     3     4    1
    12     5     4    1
    13     5     6    1
    14     6     7    1
    15     7    17    1
    16    17    18    1
    17    18    19   ar
    18    19    20   ar
    19    20    21   ar
    20    21    22   ar
    21    22    24    1
    22    24    25   am
    23    24    26    2
    24    22    23   ar
    25     7     8    1
    26    16    11   ar
    27     5     1    1
    28    23    18   ar
    29     8     2    1
    30    25    27    1
    31    25    28    1
@<TRIPOS>MOLECULE
*****
 28 31 0 0 0
SMALL
GASTEIGER

@<TRIPOS>ATOM
      1 N         140.2298  142.3106  164.8278 N.3     1  UNL1       -0.2727
      2 C         139.4323  142.0561  163.5831 C.3     1  UNL1        0.0613
      3 C         138.4794  143.2001  163.4010 C.3     1  UNL1        0.0175
      4 C         138.6879  144.1617  164.5332 C.3     1  UNL1        0.0175
      5 C         139.7697  143.6119  165.4150 C.3     1  UNL1        0.0613
      6 C         140.8632  142.8311  166.1034 C.3     1  UNL1        0.0595
      7 C         141.2174  141.5531  165.4025 C.3     1  UNL1        0.1686
      8 C         140.5020  141.1656  164.1423 C.3     1  UNL1        0.0595
      9 C         140.9573  140.4052  166.4373 C.3     1  UNL1        0.0222
     10 C         141.2995  141.4201  165.3871 C.3     1  UNL1        0.0801
     11 C         142.7114  141.5445  164.8961 C.ar    1  UNL1       -0.0078
     12 C         143.3847  142.8849  164.8804 C.ar    1  UNL1       -0.0030
     13 C         144.7966  143.0092  164.3894 C.ar    1  UNL1       -0.0003
     14 C         145.5352  141.7933  163.9141 C.ar    1  UNL1       -0.0000
     15 C         144.8619  140.4529  163.9298 C.ar    1  UNL1       -0.0003
     16 C         143.4500  140.3286  164.4207 C.ar    1  UNL1       -0.0030
     17 O         142.2872  140.6626  165.9618 O.3     1  UNL1       -0.4791
     18 C         142.5354  140.6263  167.4407 C.ar    1  UNL1        0.1385
     19 C         142.1967  139.3954  168.2281 C.ar    1  UNL1        0.0369
     20 C         142.4449  139.3591  169.7069 C.ar    1  UNL1        0.0033
     21 C         143.0318  140.5538  170.3984 C.ar    1  UNL1        0.0047
     22 C         143.3705  141.7847  169.6110 C.ar    1  UNL1        0.0561
     23 C         143.1223  141.8210  168.1322 C.ar    1  UNL1        0.0414
     24 C         143.9575  142.9794  170.3026 C.2     1  UNL1        0.2428
     25 N         143.0820  143.8706  171.1329 N.am    1  UNL1       -0.3253
     26 O         145.4199  143.2829  170.1639 O.2     1  UNL1       -0.2704
     27 H         142.1222  143.6714  171.2239 H       1  UNL1        0.1453
     28 H         143.4672  144.6547  171.5867 H       1  UNL1        0.1453
@<TRIPOS>BOND
     1     9    10    1
     2    10    11    1
     3    11    12   ar
     4    12    13   ar
     5    13    14   ar
     6    14    15   ar
     7    15    16   ar
     8    10     1    1
     9     1     2    1
    10     2     3    1
    11     3     4    1
    12     5     4    1
    13     5     6    1
    14     6     7    1
    15     7    17    1
    16    17    18    1
    17    18    19   ar
    18    19    20   ar
    19    20    21   ar
    20    21    22   ar
    21    22    24    1
    22    24    25   am
    23    24    26    2
    24    22    23   ar
    25     7     8    1
    26    16    11   ar
    27     5     1    1
    28    23    18   ar
    29     8     2    1
    30    25    27    1
    31    25    28    1
@<TRIPOS>MOLECULE
*****
 28 31 0 0 0
SMALL
GASTEIGER

@<TRIPOS>ATOM
      1 N         139.6409  139.5959  164.0841 N.3     1  UNL1       -0.2727
      2 C         138.4667  139.0959  163.2958 C.3     1  UNL1        0.0613
      3 C         138.9304  137.9454  162.4526 C.3     1  UNL1        0.0175
      4 C         140.3913  137.7342  162.7197 C.3     1  UNL1        0.0175
      5 C         140.8304  138.7543  163.7280 C.3     1  UNL1        0.0613
      6 C         140.9840  139.8713  164.7318 C.3     1  UNL1        0.0595
      7 C         139.7123  140.6248  164.9872 C.3     1  UNL1        0.1686
      8 C         138.4537  140.2371  164.2692 C.3     1  UNL1        0.0595
      9 C         139.4298  140.4726  166.5206 C.3     1  UNL1        0.0222
     10 C         139.6279  140.7371  165.0575 C.3     1  UNL1        0.0801
     11 C         139.8131  142.1427  164.5677 C.ar    1  UNL1       -0.0078
     12 C         140.9575  142.4749  163.6565 C.ar    1  UNL1       -0.0030
     13 C         141.1426  143.8806  163.1668 C.ar    1  UNL1       -0.0003
     14 C         140.1834  144.9540  163.5881 C.ar    1  UNL1       -0.0000
     15 C         139.0390  144.6218  164.4993 C.ar    1  UNL1       -0.0003
     16 C         138.8539  143.2162  164.9891 C.ar    1  UNL1       -0.0030
     17 O         139.6994  141.7661  165.9607 O.3     1  UNL1       -0.4791
     18 C         140.6411  141.7666  167.1283 C.ar    1  UNL1        0.1385
     19 C         142.0789  142.1463  166.9321 C.ar    1  UNL1        0.0369
     20 C         143.0205  142.1468  168.0996 C.ar    1  UNL1        0.0033
     21 C         142.5243  141.7676  169.4634 C.ar    1  UNL1        0.0047
     22 C         141.0865  141.3879  169.6597 C.ar    1  UNL1        0.0561
     23 C         140.1449  141.3874  168.4920 C.ar    1  UNL1        0.0414
     24 C         140.5904  141.0087  171.0235 C.2     1  UNL1        0.2428
     25 N         140.0386  139.6351  171.2657 N.am    1  UNL1       -0.3253
     26 O         140.6461  142.0032  172.1452 O.2     1  UNL1       -0.2704
     27 H         140.0021  138.9824  170.5296 H       1  UNL1        0.1453
     28 H         139.7130  139.3862  172.1609 H       1  UNL1        0.1453
@<TRIPOS>BOND
     1     9    10    1
     2    10    11    1
     3    11    12   ar
     4    12    13   ar
     5    13    14   ar
     6    14    15   ar
     7    15    16   ar
     8    10     1    1
     9     1     2    1
    10     2     3    1
    11     3     4    1
    12     5     4    1
    13     5     6    1
    14     6     7    1
    15     7    17    1
    16    17    18    1
    17    18    19   ar
    18    19    20   ar
    19    20    21   ar
    20    21    22   ar
    21    22    24    1
    22    24    25   am
    23    24    26    2
    24    22    23   ar
    25     7     8    1
    26    16    11   ar
    27     5     1    1
    28    23    18   ar
    29     8     2    1
    30    25    27    1
    31    25    28    1
@<TRIPOS>MOLECULE
*****
 28 31 0 0 0
SMALL
GASTEIGER

@<TRIPOS>ATOM
      1 N         142.5627  143.2562  165.0972 N.3     1  UNL1       -0.2727
      2 C         143.9055  143.8939  164.8968 C.3     1  UNL1        0.0613
      3 C         143.7216  145.0953  164.0177 C.3     1  UNL1        0.0175
      4 C         142.2651  145.2001  163.6748 C.3     1  UNL1        0.0175
      5 C         141.5489  144.0635  164.3419 C.3     1  UNL1        0.0613
      6 C         141.1030  142.8463  165.1157 C.3     1  UNL1        0.0595
      7 C         142.2244  142.1410  165.8192 C.3     1  UNL1        0.1686
      8 C         143.6257  142.6647  165.7097 C.3     1  UNL1        0.0595
      9 C         142.3277  140.6741  165.2639 C.3     1  UNL1        0.0222
     10 C         142.2829  142.0270  165.9101 C.3     1  UNL1        0.0801
     11 C         141.9582  142.1508  167.3693 C.ar    1  UNL1       -0.0078
     12 C         142.8283  141.4803  168.3908 C.ar    1  UNL1       -0.0030
     13 C         142.5035  141.6042  169.8500 C.ar    1  UNL1       -0.0003
     14 C         141.3088  142.3984  170.2878 C.ar    1  UNL1       -0.0000
     15 C         140.4387  143.0689  169.2662 C.ar    1  UNL1       -0.0003
     16 C         140.7633  142.9451  167.8071 C.ar    1  UNL1       -0.0030
     17 O         141.9445  140.9117  166.6322 O.3     1  UNL1       -0.4791
     18 C         140.7915  140.0218  166.2735 C.ar    1  UNL1        0.1385
     19 C         139.6254  139.8919  167.2079 C.ar    1  UNL1        0.0369
     20 C         138.4724  139.0021  166.8493 C.ar    1  UNL1        0.0033
     21 C         138.4855  138.2421  165.5561 C.ar    1  UNL1        0.0047
     22 C         139.6517  138.3720  164.6217 C.ar    1  UNL1        0.0561
     23 C         140.8047  139.2619  164.9804 C.ar    1  UNL1        0.0414
     24 C         139.6648  137.6120  163.3286 C.2     1  UNL1        0.2428
     25 N         138.4243  137.5401  162.4882 N.am    1  UNL1       -0.3253
     26 O         140.9184  136.9238  162.8757 O.2     1  UNL1       -0.2704
     27 H         137.6015  137.9917  162.7854 H       1  UNL1        0.1453
     28 H         138.4329  137.0413  161.6395 H       1  UNL1        0.1453
@<TRIPOS>BOND
     1     9    10    1
     2    10    11    1
     3    11    12   ar
     4    12    13   ar
     5    13    14   ar
     6    14    15   ar
     7    15    16   ar
     8    10     1    1
     9     1     2    1
    10     2     3    1
    11     3     4    1
    12     5     4    1
    13     5     6    1
    14     6     7    1
    15     7    17    1
    16    17    18    1
    17    18    19   ar
    18    19    20   ar
    19    20    21   ar
    20    21    22   ar
    21    22    24    1
    22    24    25   am
    23    24    26    2
    24    22    23   ar
    25     7     8    1
    26    16    11   ar
    27     5     1    1
    28    23    18   ar
    29     8     2    1
    30    25    27    1
    31    25    28    1
@<TRIPOS>MOLECULE
*****
 28 31 0 0 0
SMALL
GASTEIGER

@<TRIPOS>ATOM
      1 N         141.6647  142.3658  168.3637 N.3     1  UNL1       -0.2727
      2 C         141.3621  143.1706  169.5928 C.3     1  UNL1        0.0613
      3 C         142.5969  143.1991  170.4440 C.3     1  UNL1        0.0175
      4 C         143.6627  142.4119  169.7408 C.3     1  UNL1        0.0175
      5 C         143.0866  141.8969  168.4552 C.3     1  UNL1        0.0613
      6 C         142.2561  141.5215  167.2517 C.3     1  UNL1        0.0595
      7 C         140.8570  142.0604  167.2989 C.3     1  UNL1        0.1686
      8 C         140.4100  142.8849  168.4695 C.3     1  UNL1        0.0595
      9 C         139.8557  140.8496  167.2781 C.3     1  UNL1        0.0222
     10 C         140.7127  142.0802  167.2404 C.3     1  UNL1        0.0801
     11 C         140.6175  143.0250  166.0793 C.ar    1  UNL1       -0.0078
     12 C         139.3389  143.7642  165.8166 C.ar    1  UNL1       -0.0030
     13 C         139.2439  144.7091  164.6554 C.ar    1  UNL1       -0.0003
     14 C         140.4272  144.9148  163.7570 C.ar    1  UNL1       -0.0000
     15 C         141.7058  144.1756  164.0197 C.ar    1  UNL1       -0.0003
     16 C         141.8009  143.2307  165.1808 C.ar    1  UNL1       -0.0030
     17 O         139.9049  141.7746  166.1755 O.3     1  UNL1       -0.4791
     18 C         139.8939  140.4219  165.5275 C.ar    1  UNL1        0.1385
     19 C         138.7163  139.5114  165.7121 C.ar    1  UNL1        0.0369
     20 C         138.7052  138.1587  165.0641 C.ar    1  UNL1        0.0033
     21 C         139.8719  137.7164  164.2315 C.ar    1  UNL1        0.0047
     22 C         141.0496  138.6269  164.0469 C.ar    1  UNL1        0.0561
     23 C         141.0606  139.9797  164.6949 C.ar    1  UNL1        0.0414
     24 C         142.2162  138.1846  163.2142 C.2     1  UNL1        0.2428
     25 N         142.0002  137.2653  162.0487 N.am    1  UNL1       -0.3253
     26 O         143.5989  138.6616  163.5471 O.2     1  UNL1       -0.2704
     27 H         141.0928  136.9523  161.8303 H       1  UNL1        0.1453
     28 H         142.7660  136.9751  161.5023 H       1  UNL1        0.1453
@<TRIPOS>BOND
     1     9    10    1
     2    10    11    1
     3    11    12   ar
     4    12    13   ar
     5    13    14   ar
     6    14    15   ar
     7    15    16   ar
     8    10     1    1
     9     1     2    1
    10     2     3    1
    11     3     4    1
    12     5     4    1
    13     5     6    1
    14     6     7    1
    15     7    17    1
    16    17    18    1
    17    18    19   ar
    18    19    20   ar
    19    20    21   ar
    20    21    22   ar
    21    22    24    1
    22    24    25   am
    23    24    26    2
    24    22    23   ar
    25     7     8    1
    26    16    11   ar
    27     5     1    1
    28    23    18   ar
    29     8     2    1
    30    25    27    1
    31    25    28    1
@<TRIPOS>MOLECULE
*****
 28 31 0 0 0
SMALL
GASTEIGER

@<TRIPOS>ATOM
      1 N         142.3806  140.9671  168.3790 N.3     1  UNL1       -0.2727
      2 C         143.1557  141.3809  169.5947 C.3     1  UNL1        0.0613
      3 C         143.1135  140.2496  170.5787 C.3     1  UNL1        0.0175
      4 C         142.3122  139.1366  169.9711 C.3     1  UNL1        0.0175
      5 C         141.8592  139.5800  168.6116 C.3     1  UNL1        0.0613
      6 C         141.5520  140.2810  167.3104 C.3     1  UNL1        0.0595
      7 C         142.1380  141.6589  167.2205 C.3     1  UNL1        0.1686
      8 C         142.9398  142.2088  168.3626 C.3     1  UNL1        0.0595
      9 C         140.9444  142.6592  167.0284 C.3     1  UNL1        0.0222
     10 C         142.1647  141.7950  167.1469 C.3     1  UNL1        0.0801
     11 C         143.1691  141.7587  166.0335 C.ar    1  UNL1       -0.0078
     12 C         143.8854  143.0129  165.6283 C.ar    1  UNL1       -0.0030
     13 C         144.8899  142.9765  164.5148 C.ar    1  UNL1       -0.0003
     14 C         145.1780  141.6862  163.8065 C.ar    1  UNL1       -0.0000
     15 C         144.4616  140.4320  164.2116 C.ar    1  UNL1       -0.0003
     16 C         143.4572  140.4683  165.3251 C.ar    1  UNL1       -0.0030
     17 O         141.9220  142.4868  165.9884 O.3     1  UNL1       -0.4791
     18 C         140.5656  142.5425  165.3504 C.ar    1  UNL1        0.1385
     19 C         139.7561  143.8035  165.4182 C.ar    1  UNL1        0.0369
     20 C         138.3997  143.8592  164.7803 C.ar    1  UNL1        0.0033
     21 C         137.8528  142.6539  164.0745 C.ar    1  UNL1        0.0047
     22 C         138.6623  141.3929  164.0068 C.ar    1  UNL1        0.0561
     23 C         140.0187  141.3372  164.6447 C.ar    1  UNL1        0.0414
     24 C         138.1153  140.1876  163.3010 C.2     1  UNL1        0.2428
     25 N         137.2481  140.3574  162.0889 N.am    1  UNL1       -0.3253
     26 O         138.4355  138.8124  163.8074 O.2     1  UNL1       -0.2704
     27 H         137.0380  141.2600  161.7565 H       1  UNL1        0.1453
     28 H         136.8891  139.5663  161.6257 H       1  UNL1        0.1453
@<TRIPOS>BOND
     1     9    10    1
     2    10    11    1
     3    11    12   ar
     4    12    13   ar
     5    13    14   ar
     6    14    15   ar
     7    15    16   ar
     8    10     1    1
     9     1     2    1
    10     2     3    1
    11     3     4    1
    12     5     4    1
    13     5     6    1
    14     6     7    1
    15     7    17    1
    16    17    18    1
    17    18    19   ar
    18    19    20   ar
    19    20    21   ar
    20    21    22   ar
    21    22    24    1
    22    24    25   am
    23    24    26    2
    24    22    23   ar
    25     7     8    1
    26    16    11   ar
    27     5     1    1
    28    23    18   ar
    29     8     2    1
    30    25    27    1
    31    25    28    1
