@<TRIPOS>MOLECULE
*****
 32 34 0 0 0
SMALL
GASTEIGER

@<TRIPOS>ATOM
      1 N         140.8295  140.8585  165.6820 N.pl3   1  UNL1       -0.3035
      2 C         141.7923  142.2096  170.6947 C.2     1  UNL1        0.2526
      3 O         141.1670  142.0085  172.0433 O.2     1  UNL1       -0.2723
      4 N         141.1495  141.6200  169.4745 N.am    1  UNL1       -0.2758
      5 C         139.8872  140.8101  169.4470 C.3     1  UNL1        0.0953
      6 C         139.6137  140.4262  168.0229 C.3     1  UNL1        0.0430
      7 C         140.7070  140.9990  167.1704 C.3     1  UNL1        0.0946
      8 C         141.6561  141.7367  168.0675 C.3     1  UNL1        0.1131
      9 C         144.2455  142.4087  169.8628 C.3     1  UNL1        0.0417
     10 C         143.0605  143.0004  170.5666 C.3     1  UNL1        0.1869
     11 O         143.1435  144.3830  171.1424 O.3     1  UNL1       -0.3758
     12 H         142.2978  144.6109  171.5594 H       1  UNL1        0.2110
     13 C         140.5579  142.0356  164.7927 C.ar    1  UNL1        0.0490
     14 C         141.6928  142.7304  164.1006 C.ar    1  UNL1        0.0153
     15 C         141.4212  143.9075  163.2114 C.ar    1  UNL1        0.0124
     16 C         140.0146  144.3896  163.0142 C.ar    1  UNL1        0.0791
     17 C         138.8795  143.6948  163.7063 C.ar    1  UNL1        0.0685
     18 CL        137.4729  144.1770  163.5091 Cl      1  UNL1       -0.0815
     19 C         139.1512  142.5177  164.5955 C.ar    1  UNL1        0.0266
     20 C         139.7429  145.5667  162.1249 C.1     1  UNL1        0.1013
     21 N         139.4713  146.7437  161.2357 N.1     1  UNL1       -0.1908
     22 C         141.2237  139.5411  165.0829 C.3     1  UNL1        0.1177
     23 C         140.5496  139.0529  163.8350 C.ar    1  UNL1        0.0015
     24 C         141.2174  139.2296  162.5036 C.ar    1  UNL1       -0.0027
     25 C         140.5433  138.7415  161.2556 C.ar    1  UNL1       -0.0003
     26 C         139.2014  138.0767  161.3391 C.ar    1  UNL1       -0.0001
     27 C         138.5334  137.8999  162.6706 C.ar    1  UNL1        0.0036
     28 C         139.2075  138.3881  163.9185 C.ar    1  UNL1        0.0691
     29 C         138.5396  138.2114  165.2499 C.3     1  UNL1        0.4183
     30 F         137.8718  138.0347  166.5813 F       1  UNL1       -0.1659
     31 F         137.8973  139.5592  165.1065 F       1  UNL1       -0.1659
     32 F         139.1820  136.8635  165.3932 F       1  UNL1       -0.1659
@<TRIPOS>BOND
     1    10     9    1
     2    10    11    1
     3    10     2    1
     4     2     3    2
     5     2     4   am
     6     4     5    1
     7     5     6    1
     8     6     7    1
     9     7     1    1
    10     1    22    1
    11    22    23    1
    12    23    24   ar
    13    24    25   ar
    14    25    26   ar
    15    26    27   ar
    16    27    28   ar
    17    28    29    1
    18    29    30    1
    19    29    31    1
    20    29    32    1
    21     1    13    1
    22    13    14   ar
    23    14    15   ar
    24    15    16   ar
    25    16    20    1
    26    20    21    3
    27    16    17   ar
    28    17    18    1
    29    17    19   ar
    30     7     8    1
    31     8     4    1
    32    28    23   ar
    33    19    13   ar
    34    11    12    1
@<TRIPOS>MOLECULE
*****
 32 34 0 0 0
SMALL
GASTEIGER

@<TRIPOS>ATOM
      1 N         142.2245  139.8147  165.3047 N.pl3   1  UNL1       -0.3035
      2 C         138.0538  139.2255  162.1206 C.2     1  UNL1        0.2526
      3 O         137.3127  138.1072  161.4497 O.2     1  UNL1       -0.2723
      4 N         139.2450  138.9257  162.9814 N.am    1  UNL1       -0.2758
      5 C         139.8092  137.5646  163.2629 C.3     1  UNL1        0.0953
      6 C         140.9940  137.7320  164.1675 C.3     1  UNL1        0.0430
      7 C         141.1620  139.1965  164.4450 C.3     1  UNL1        0.0946
      8 C         140.0811  139.9342  163.7120 C.3     1  UNL1        0.1131
      9 C         138.1265  141.4484  160.7776 C.3     1  UNL1        0.0417
     10 C         137.6037  140.6437  161.9304 C.3     1  UNL1        0.1869
     11 O         136.6308  141.2572  162.8933 O.3     1  UNL1       -0.3758
     12 H         136.3955  140.6069  163.5735 H       1  UNL1        0.2110
     13 C         141.8854  140.3016  166.6823 C.ar    1  UNL1        0.0490
     14 C         140.5326  140.0195  167.2656 C.ar    1  UNL1        0.0153
     15 C         140.1935  140.5064  168.6433 C.ar    1  UNL1        0.0124
     16 C         141.2071  141.2755  169.4376 C.ar    1  UNL1        0.0791
     17 C         142.5600  141.5577  168.8543 C.ar    1  UNL1        0.0685
     18 CL        143.5737  142.3267  169.6486 Cl      1  UNL1       -0.0815
     19 C         142.8992  141.0707  167.4766 C.ar    1  UNL1        0.0266
     20 C         140.8680  141.7624  170.8152 C.1     1  UNL1        0.1013
     21 N         140.5289  142.2494  172.1929 N.1     1  UNL1       -0.1908
     22 C         143.6261  139.9459  164.7867 C.3     1  UNL1        0.1177
     23 C         143.8808  140.6336  163.4782 C.ar    1  UNL1        0.0015
     24 C         143.7286  139.8777  162.1916 C.ar    1  UNL1       -0.0027
     25 C         143.9833  140.5653  160.8830 C.ar    1  UNL1       -0.0003
     26 C         144.3902  142.0089  160.8611 C.ar    1  UNL1       -0.0001
     27 C         144.5424  142.7649  162.1477 C.ar    1  UNL1        0.0036
     28 C         144.2877  142.0772  163.4563 C.ar    1  UNL1        0.0691
     29 C         144.4398  142.8331  164.7429 C.3     1  UNL1        0.4183
     30 F         144.5920  143.5890  166.0295 F       1  UNL1       -0.1659
     31 F         145.8928  142.4632  164.7883 F       1  UNL1       -0.1659
     32 F         142.9869  143.2030  164.6974 F       1  UNL1       -0.1659
@<TRIPOS>BOND
     1    10     9    1
     2    10    11    1
     3    10     2    1
     4     2     3    2
     5     2     4   am
     6     4     5    1
     7     5     6    1
     8     6     7    1
     9     7     1    1
    10     1    22    1
    11    22    23    1
    12    23    24   ar
    13    24    25   ar
    14    25    26   ar
    15    26    27   ar
    16    27    28   ar
    17    28    29    1
    18    29    30    1
    19    29    31    1
    20    29    32    1
    21     1    13    1
    22    13    14   ar
    23    14    15   ar
    24    15    16   ar
    25    16    20    1
    26    20    21    3
    27    16    17   ar
    28    17    18    1
    29    17    19   ar
    30     7     8    1
    31     8     4    1
    32    28    23   ar
    33    19    13   ar
    34    11    12    1
@<TRIPOS>MOLECULE
*****
 32 34 0 0 0
SMALL
GASTEIGER

@<TRIPOS>ATOM
      1 N         139.3893  140.3342  166.0757 N.pl3   1  UNL1       -0.3035
      2 C         141.3187  141.9426  170.7201 C.2     1  UNL1        0.2526
      3 O         141.0273  141.7423  172.1779 O.2     1  UNL1       -0.2723
      4 N         140.4748  141.2587  169.6858 N.am    1  UNL1       -0.2758
      5 C         139.3123  140.3501  169.9564 C.3     1  UNL1        0.0953
      6 C         138.7642  139.8932  168.6369 C.3     1  UNL1        0.0430
      7 C         139.5880  140.5194  167.5509 C.3     1  UNL1        0.0946
      8 C         140.6451  141.3633  168.1991 C.3     1  UNL1        0.1131
      9 C         143.5808  142.2630  169.4832 C.3     1  UNL1        0.0417
     10 C         142.4540  142.8268  170.2969 C.3     1  UNL1        0.1869
     11 O         142.4625  144.2750  170.6876 O.3     1  UNL1       -0.3758
     12 H         141.6680  144.4744  171.2072 H       1  UNL1        0.2110
     13 C         139.3785  141.5260  165.1649 C.ar    1  UNL1        0.0490
     14 C         138.0766  142.0655  164.6512 C.ar    1  UNL1        0.0153
     15 C         138.0658  143.2573  163.7404 C.ar    1  UNL1        0.0124
     16 C         139.3569  143.9096  163.3434 C.ar    1  UNL1        0.0791
     17 C         140.6589  143.3700  163.8571 C.ar    1  UNL1        0.0685
     18 CL        141.9499  144.0223  163.4600 Cl      1  UNL1       -0.0815
     19 C         140.6697  142.1782  164.7678 C.ar    1  UNL1        0.0266
     20 C         139.3461  145.1014  162.4326 C.1     1  UNL1        0.1013
     21 N         139.3352  146.2932  161.5218 N.1     1  UNL1       -0.1908
     22 C         139.2016  138.9572  165.5113 C.3     1  UNL1        0.1177
     23 C         139.4915  138.6942  164.0632 C.ar    1  UNL1        0.0015
     24 C         138.4251  138.9175  163.0323 C.ar    1  UNL1       -0.0027
     25 C         138.7150  138.6545  161.5842 C.ar    1  UNL1       -0.0003
     26 C         140.0713  138.1682  161.1672 C.ar    1  UNL1       -0.0001
     27 C         141.1377  137.9449  162.1981 C.ar    1  UNL1        0.0036
     28 C         140.8478  138.2079  163.6462 C.ar    1  UNL1        0.0691
     29 C         141.9142  137.9846  164.6771 C.3     1  UNL1        0.4183
     30 F         142.9806  137.7613  165.7081 F       1  UNL1       -0.1659
     31 F         141.4270  136.5801  164.8769 F       1  UNL1       -0.1659
     32 F         142.4014  139.3891  164.4774 F       1  UNL1       -0.1659
@<TRIPOS>BOND
     1    10     9    1
     2    10    11    1
     3    10     2    1
     4     2     3    2
     5     2     4   am
     6     4     5    1
     7     5     6    1
     8     6     7    1
     9     7     1    1
    10     1    22    1
    11    22    23    1
    12    23    24   ar
    13    24    25   ar
    14    25    26   ar
    15    26    27   ar
    16    27    28   ar
    17    28    29    1
    18    29    30    1
    19    29    31    1
    20    29    32    1
    21     1    13    1
    22    13    14   ar
    23    14    15   ar
    24    15    16   ar
    25    16    20    1
    26    20    21    3
    27    16    17   ar
    28    17    18    1
    29    17    19   ar
    30     7     8    1
    31     8     4    1
    32    28    23   ar
    33    19    13   ar
    34    11    12    1
@<TRIPOS>MOLECULE
*****
 32 34 0 0 0
SMALL
GASTEIGER

@<TRIPOS>ATOM
      1 N         143.1131  142.4076  165.0714 N.pl3   1  UNL1       -0.3035
      2 C         139.3107  144.9694  162.4523 C.2     1  UNL1        0.2526
      3 O         139.1705  146.2121  161.6240 O.2     1  UNL1       -0.2723
      4 N         140.6439  144.6014  163.0327 N.am    1  UNL1       -0.2758
      5 C         141.9195  145.3741  162.8711 C.3     1  UNL1        0.0953
      6 C         142.9997  144.6463  163.6151 C.3     1  UNL1        0.0430
      7 C         142.3917  143.4239  164.2365 C.3     1  UNL1        0.0946
      8 C         140.9358  143.3962  163.8766 C.3     1  UNL1        0.1131
      9 C         137.4986  144.0398  164.0654 C.3     1  UNL1        0.0417
     10 C         138.1175  144.0949  162.7002 C.3     1  UNL1        0.1869
     11 O         137.5433  143.2753  161.5828 O.3     1  UNL1       -0.3758
     12 H         138.0574  143.4259  160.7742 H       1  UNL1        0.2110
     13 C         142.6369  142.1042  166.4610 C.ar    1  UNL1        0.0490
     14 C         141.3357  141.3873  166.6682 C.ar    1  UNL1        0.0153
     15 C         140.8596  141.0839  168.0579 C.ar    1  UNL1        0.0124
     16 C         141.6846  141.4974  169.2404 C.ar    1  UNL1        0.0791
     17 C         142.9858  142.2143  169.0332 C.ar    1  UNL1        0.0685
     18 CL        143.8109  142.6278  170.2157 Cl      1  UNL1       -0.0815
     19 C         143.4620  142.5177  167.6436 C.ar    1  UNL1        0.0266
     20 C         141.2084  141.1940  170.6301 C.1     1  UNL1        0.1013
     21 N         140.7323  140.8906  172.0198 N.1     1  UNL1       -0.1908
     22 C         144.3105  141.6948  164.5165 C.3     1  UNL1        0.1177
     23 C         144.1509  140.7408  163.3700 C.ar    1  UNL1        0.0015
     24 C         144.2653  141.2376  161.9594 C.ar    1  UNL1       -0.0027
     25 C         144.1057  140.2836  160.8129 C.ar    1  UNL1       -0.0003
     26 C         143.8316  138.8327  161.0771 C.ar    1  UNL1       -0.0001
     27 C         143.7172  138.3358  162.4879 C.ar    1  UNL1        0.0036
     28 C         143.8769  139.2898  163.6343 C.ar    1  UNL1        0.0691
     29 C         143.7625  138.7930  165.0450 C.3     1  UNL1        0.4183
     30 F         143.6481  138.2962  166.4556 F       1  UNL1       -0.1659
     31 F         145.2577  138.7871  165.1642 F       1  UNL1       -0.1659
     32 F         142.2672  138.7989  164.9258 F       1  UNL1       -0.1659
@<TRIPOS>BOND
     1    10     9    1
     2    10    11    1
     3    10     2    1
     4     2     3    2
     5     2     4   am
     6     4     5    1
     7     5     6    1
     8     6     7    1
     9     7     1    1
    10     1    22    1
    11    22    23    1
    12    23    24   ar
    13    24    25   ar
    14    25    26   ar
    15    26    27   ar
    16    27    28   ar
    17    28    29    1
    18    29    30    1
    19    29    31    1
    20    29    32    1
    21     1    13    1
    22    13    14   ar
    23    14    15   ar
    24    15    16   ar
    25    16    20    1
    26    20    21    3
    27    16    17   ar
    28    17    18    1
    29    17    19   ar
    30     7     8    1
    31     8     4    1
    32    28    23   ar
    33    19    13   ar
    34    11    12    1
@<TRIPOS>MOLECULE
*****
 32 34 0 0 0
SMALL
GASTEIGER

@<TRIPOS>ATOM
      1 N         142.5442  140.9604  165.1309 N.pl3   1  UNL1       -0.3035
      2 C         139.8948  144.1466  161.8584 C.2     1  UNL1        0.2526
      3 O         140.2029  145.1398  160.7774 O.2     1  UNL1       -0.2723
      4 N         141.0112  143.4338  162.5623 N.am    1  UNL1       -0.2758
      5 C         142.4767  143.6097  162.2950 C.3     1  UNL1        0.0953
      6 C         143.2294  142.7045  163.2247 C.3     1  UNL1        0.0430
      7 C         142.2290  141.9693  164.0665 C.3     1  UNL1        0.0946
      8 C         140.8581  142.4200  163.6572 C.3     1  UNL1        0.1131
      9 C         137.9219  144.3836  163.5322 C.3     1  UNL1        0.0417
     10 C         138.4703  143.8663  162.2355 C.3     1  UNL1        0.1869
     11 O         137.5941  143.0686  161.3157 O.3     1  UNL1       -0.3758
     12 H         138.0998  142.8133  160.5282 H       1  UNL1        0.2110
     13 C         142.1244  141.2103  166.5491 C.ar    1  UNL1        0.0490
     14 C         142.9480  142.1035  167.4288 C.ar    1  UNL1        0.0153
     15 C         142.5282  142.3535  168.8470 C.ar    1  UNL1        0.0124
     16 C         141.2848  141.7102  169.3855 C.ar    1  UNL1        0.0791
     17 C         140.4611  140.8170  168.5058 C.ar    1  UNL1        0.0685
     18 CL        139.2177  140.1737  169.0444 Cl      1  UNL1       -0.0815
     19 C         140.8809  140.5670  167.0876 C.ar    1  UNL1        0.0266
     20 C         140.8650  141.9601  170.8037 C.1     1  UNL1        0.1013
     21 N         140.4451  142.2101  172.2219 N.1     1  UNL1       -0.1908
     22 C         143.2793  139.7017  164.7771 C.3     1  UNL1        0.1177
     23 C         143.0731  139.0649  163.4347 C.ar    1  UNL1        0.0015
     24 C         144.0930  139.2524  162.3510 C.ar    1  UNL1       -0.0027
     25 C         143.8868  138.6156  161.0086 C.ar    1  UNL1       -0.0003
     26 C         142.6607  137.7912  160.7500 C.ar    1  UNL1       -0.0001
     27 C         141.6407  137.6036  161.8337 C.ar    1  UNL1        0.0036
     28 C         141.8469  138.2405  163.1761 C.ar    1  UNL1        0.0691
     29 C         140.8269  138.0529  164.2598 C.3     1  UNL1        0.4183
     30 F         139.8070  137.8653  165.3435 F       1  UNL1       -0.1659
     31 F         141.5611  136.8363  164.7402 F       1  UNL1       -0.1659
     32 F         140.0927  139.2695  163.7794 F       1  UNL1       -0.1659
@<TRIPOS>BOND
     1    10     9    1
     2    10    11    1
     3    10     2    1
     4     2     3    2
     5     2     4   am
     6     4     5    1
     7     5     6    1
     8     6     7    1
     9     7     1    1
    10     1    22    1
    11    22    23    1
    12    23    24   ar
    13    24    25   ar
    14    25    26   ar
    15    26    27   ar
    16    27    28   ar
    17    28    29    1
    18    29    30    1
    19    29    31    1
    20    29    32    1
    21     1    13    1
    22    13    14   ar
    23    14    15   ar
    24    15    16   ar
    25    16    20    1
    26    20    21    3
    27    16    17   ar
    28    17    18    1
    29    17    19   ar
    30     7     8    1
    31     8     4    1
    32    28    23   ar
    33    19    13   ar
    34    11    12    1
@<TRIPOS>MOLECULE
*****
 32 34 0 0 0
SMALL
GASTEIGER

@<TRIPOS>ATOM
      1 N         141.9890  139.6645  165.4685 N.pl3   1  UNL1       -0.3035
      2 C         143.8682  143.5170  162.3852 C.2     1  UNL1        0.2526
      3 O         145.0792  143.7770  161.5391 O.2     1  UNL1       -0.2723
      4 N         143.7366  142.2206  163.1280 N.am    1  UNL1       -0.2758
      5 C         144.7291  141.0959  163.1213 C.3     1  UNL1        0.0953
      6 C         144.1952  140.0014  163.9972 C.3     1  UNL1        0.0430
      7 C         142.8728  140.4498  164.5453 C.3     1  UNL1        0.0946
      8 C         142.5894  141.8213  164.0081 C.3     1  UNL1        0.1131
      9 C         142.4403  145.1433  163.8227 C.3     1  UNL1        0.0417
     10 C         142.7889  144.5536  162.4883 C.3     1  UNL1        0.1869
     11 O         142.0582  145.0005  161.2569 O.3     1  UNL1       -0.3758
     12 H         142.4034  144.5243  160.4855 H       1  UNL1        0.2110
     13 C         141.6881  140.1857  166.8424 C.ar    1  UNL1        0.0490
     14 C         140.3336  139.9657  167.4480 C.ar    1  UNL1        0.0153
     15 C         140.0327  140.4869  168.8220 C.ar    1  UNL1        0.0124
     16 C         141.0862  141.2283  169.5903 C.ar    1  UNL1        0.0791
     17 C         142.4408  141.4484  168.9846 C.ar    1  UNL1        0.0685
     18 CL        143.4944  142.1898  169.7529 Cl      1  UNL1       -0.0815
     19 C         142.7417  140.9271  167.6107 C.ar    1  UNL1        0.0266
     20 C         140.7853  141.7496  170.9642 C.1     1  UNL1        0.1013
     21 N         140.4843  142.2709  172.3381 N.1     1  UNL1       -0.1908
     22 C         141.4063  138.3579  165.0177 C.3     1  UNL1        0.1177
     23 C         140.6223  138.2870  163.7408 C.ar    1  UNL1        0.0015
     24 C         141.3372  138.1685  162.4275 C.ar    1  UNL1       -0.0027
     25 C         140.5533  138.0976  161.1506 C.ar    1  UNL1       -0.0003
     26 C         139.0545  138.1453  161.1870 C.ar    1  UNL1       -0.0001
     27 C         138.3396  138.2639  162.5004 C.ar    1  UNL1        0.0036
     28 C         139.1235  138.3347  163.7773 C.ar    1  UNL1        0.0691
     29 C         138.4086  138.4533  165.0906 C.3     1  UNL1        0.4183
     30 F         137.6938  138.5718  166.4040 F       1  UNL1       -0.1659
     31 F         138.2565  139.9298  164.8746 F       1  UNL1       -0.1659
     32 F         138.5608  136.9768  165.3067 F       1  UNL1       -0.1659
@<TRIPOS>BOND
     1    10     9    1
     2    10    11    1
     3    10     2    1
     4     2     3    2
     5     2     4   am
     6     4     5    1
     7     5     6    1
     8     6     7    1
     9     7     1    1
    10     1    22    1
    11    22    23    1
    12    23    24   ar
    13    24    25   ar
    14    25    26   ar
    15    26    27   ar
    16    27    28   ar
    17    28    29    1
    18    29    30    1
    19    29    31    1
    20    29    32    1
    21     1    13    1
    22    13    14   ar
    23    14    15   ar
    24    15    16   ar
    25    16    20    1
    26    20    21    3
    27    16    17   ar
    28    17    18    1
    29    17    19   ar
    30     7     8    1
    31     8     4    1
    32    28    23   ar
    33    19    13   ar
    34    11    12    1
@<TRIPOS>MOLECULE
*****
 32 34 0 0 0
SMALL
GASTEIGER

@<TRIPOS>ATOM
      1 N         139.2461  140.6485  164.5565 N.pl3   1  UNL1       -0.3035
      2 C         140.1733  144.7835  161.4065 C.2     1  UNL1        0.2526
      3 O         139.4195  145.9595  160.8598 O.2     1  UNL1       -0.2723
      4 N         139.4843  143.8064  162.3122 N.am    1  UNL1       -0.2758
      5 C         138.0533  143.8741  162.7569 C.3     1  UNL1        0.0953
      6 C         137.7899  142.6994  163.6518 C.3     1  UNL1        0.0430
      7 C         139.0581  141.9057  163.7601 C.3     1  UNL1        0.0946
      8 C         140.1053  142.5898  162.9322 C.3     1  UNL1        0.1131
      9 C         141.9822  143.9124  159.7576 C.3     1  UNL1        0.0417
     10 C         141.6160  144.5848  161.0474 C.3     1  UNL1        0.1869
     11 O         142.6926  145.0587  161.9783 O.3     1  UNL1       -0.3758
     12 H         142.2879  145.4674  162.7593 H       1  UNL1        0.2110
     13 C         139.5176  140.7275  166.0296 C.ar    1  UNL1        0.0490
     14 C         138.9818  139.6701  166.9487 C.ar    1  UNL1        0.0153
     15 C         139.2533  139.7490  168.4218 C.ar    1  UNL1        0.0124
     16 C         140.0605  140.8855  168.9759 C.ar    1  UNL1        0.0791
     17 C         140.5963  141.9430  168.0567 C.ar    1  UNL1        0.0685
     18 CL        141.4034  143.0794  168.6108 Cl      1  UNL1       -0.0815
     19 C         140.3248  141.8640  166.5836 C.ar    1  UNL1        0.0266
     20 C         140.3319  140.9644  170.4490 C.1     1  UNL1        0.1013
     21 N         140.6034  141.0434  171.9221 N.1     1  UNL1       -0.1908
     22 C         139.1626  139.3125  163.8798 C.3     1  UNL1        0.1177
     23 C         140.1996  138.9167  162.8708 C.ar    1  UNL1        0.0015
     24 C         139.8756  138.9577  161.4068 C.ar    1  UNL1       -0.0027
     25 C         140.9126  138.5620  160.3978 C.ar    1  UNL1       -0.0003
     26 C         142.2735  138.1251  160.8528 C.ar    1  UNL1       -0.0001
     27 C         142.5975  138.0841  162.3169 C.ar    1  UNL1        0.0036
     28 C         141.5606  138.4798  163.3259 C.ar    1  UNL1        0.0691
     29 C         141.8845  138.4388  164.7899 C.3     1  UNL1        0.4183
     30 F         142.2085  138.3977  166.2539 F       1  UNL1       -0.1659
     31 F         141.3694  137.0320  164.8644 F       1  UNL1       -0.1659
     32 F         142.3996  139.8456  164.7153 F       1  UNL1       -0.1659
@<TRIPOS>BOND
     1    10     9    1
     2    10    11    1
     3    10     2    1
     4     2     3    2
     5     2     4   am
     6     4     5    1
     7     5     6    1
     8     6     7    1
     9     7     1    1
    10     1    22    1
    11    22    23    1
    12    23    24   ar
    13    24    25   ar
    14    25    26   ar
    15    26    27   ar
    16    27    28   ar
    17    28    29    1
    18    29    30    1
    19    29    31    1
    20    29    32    1
    21     1    13    1
    22    13    14   ar
    23    14    15   ar
    24    15    16   ar
    25    16    20    1
    26    20    21    3
    27    16    17   ar
    28    17    18    1
    29    17    19   ar
    30     7     8    1
    31     8     4    1
    32    28    23   ar
    33    19    13   ar
    34    11    12    1
@<TRIPOS>MOLECULE
*****
 32 34 0 0 0
SMALL
GASTEIGER

@<TRIPOS>ATOM
      1 N         142.0839  141.9966  165.4741 N.pl3   1  UNL1       -0.3035
      2 C         143.2673  138.2244  161.9740 C.2     1  UNL1        0.2526
      3 O         144.4938  137.5557  161.4278 O.2     1  UNL1       -0.2723
      4 N         143.3987  139.3025  163.0086 N.am    1  UNL1       -0.2758
      5 C         144.6831  139.8150  163.5897 C.3     1  UNL1        0.0953
      6 C         144.3469  140.8867  164.5840 C.3     1  UNL1        0.0430
      7 C         142.8547  141.0364  164.6174 C.3     1  UNL1        0.0946
      8 C         142.2687  140.0573  163.6437 C.3     1  UNL1        0.1131
      9 C         141.4126  138.3006  160.1563 C.3     1  UNL1        0.0417
     10 C         141.9094  137.8149  161.4856 C.3     1  UNL1        0.1869
     11 O         141.0485  136.9197  162.3266 O.3     1  UNL1       -0.3758
     12 H         141.5158  136.6999  163.1477 H       1  UNL1        0.2110
     13 C         141.1903  141.4799  166.5624 C.ar    1  UNL1        0.0490
     14 C         141.3480  141.9857  167.9657 C.ar    1  UNL1        0.0153
     15 C         140.4544  141.4690  169.0540 C.ar    1  UNL1        0.0124
     16 C         139.4031  140.4465  168.7391 C.ar    1  UNL1        0.0791
     17 C         139.2453  139.9407  167.3357 C.ar    1  UNL1        0.0685
     18 CL        138.1940  138.9182  167.0208 Cl      1  UNL1       -0.0815
     19 C         140.1389  140.4574  166.2474 C.ar    1  UNL1        0.0266
     20 C         138.5094  139.9298  169.8274 C.1     1  UNL1        0.1013
     21 N         137.6158  139.4131  170.9157 N.1     1  UNL1       -0.1908
     22 C         142.2067  143.4735  165.2424 C.3     1  UNL1        0.1177
     23 C         141.3491  144.1448  164.2110 C.ar    1  UNL1        0.0015
     24 C         139.9029  144.4178  164.5006 C.ar    1  UNL1       -0.0027
     25 C         139.0452  145.0891  163.4692 C.ar    1  UNL1       -0.0003
     26 C         139.6337  145.4874  162.1483 C.ar    1  UNL1       -0.0001
     27 C         141.0800  145.2144  161.8586 C.ar    1  UNL1        0.0036
     28 C         141.9377  144.5431  162.8900 C.ar    1  UNL1        0.0691
     29 C         143.3839  144.2701  162.6005 C.3     1  UNL1        0.4183
     30 F         144.8301  143.9972  162.3109 F       1  UNL1       -0.1659
     31 F         143.0054  142.9894  161.9176 F       1  UNL1       -0.1659
     32 F         143.7624  145.5509  163.2833 F       1  UNL1       -0.1659
@<TRIPOS>BOND
     1    10     9    1
     2    10    11    1
     3    10     2    1
     4     2     3    2
     5     2     4   am
     6     4     5    1
     7     5     6    1
     8     6     7    1
     9     7     1    1
    10     1    22    1
    11    22    23    1
    12    23    24   ar
    13    24    25   ar
    14    25    26   ar
    15    26    27   ar
    16    27    28   ar
    17    28    29    1
    18    29    30    1
    19    29    31    1
    20    29    32    1
    21     1    13    1
    22    13    14   ar
    23    14    15   ar
    24    15    16   ar
    25    16    20    1
    26    20    21    3
    27    16    17   ar
    28    17    18    1
    29    17    19   ar
    30     7     8    1
    31     8     4    1
    32    28    23   ar
    33    19    13   ar
    34    11    12    1
@<TRIPOS>MOLECULE
*****
 32 34 0 0 0
SMALL
GASTEIGER

@<TRIPOS>ATOM
      1 N         143.0580  142.4183  165.0817 N.pl3   1  UNL1       -0.3035
      2 C         139.4050  144.5422  161.9155 C.2     1  UNL1        0.2526
      3 O         139.1147  145.8708  161.2827 O.2     1  UNL1       -0.2723
      4 N         140.6140  144.3749  162.7873 N.am    1  UNL1       -0.2758
      5 C         141.6182  145.4397  163.1160 C.3     1  UNL1        0.0953
      6 C         142.6560  144.8363  164.0155 C.3     1  UNL1        0.0430
      7 C         142.2931  143.3987  164.2427 C.3     1  UNL1        0.0946
      8 C         141.0311  143.1136  163.4837 C.3     1  UNL1        0.1131
      9 C         138.7730  142.4138  160.5662 C.3     1  UNL1        0.0417
     10 C         138.4862  143.3809  161.6763 C.3     1  UNL1        0.1869
     11 O         137.2806  143.1868  162.5473 O.3     1  UNL1       -0.3758
     12 H         137.2432  143.8941  163.2100 H       1  UNL1        0.2110
     13 C         142.5894  142.0923  166.4688 C.ar    1  UNL1        0.0490
     14 C         143.3937  142.5338  167.6554 C.ar    1  UNL1        0.0153
     15 C         142.9251  142.2077  169.0425 C.ar    1  UNL1        0.0124
     16 C         141.6521  141.4401  169.2430 C.ar    1  UNL1        0.0791
     17 C         140.8477  140.9985  168.0564 C.ar    1  UNL1        0.0685
     18 CL        139.5747  140.2309  168.2569 Cl      1  UNL1       -0.0815
     19 C         141.3163  141.3246  166.6693 C.ar    1  UNL1        0.0266
     20 C         141.1834  141.1140  170.6301 C.1     1  UNL1        0.1013
     21 N         140.7148  140.7880  172.0172 N.1     1  UNL1       -0.1908
     22 C         144.2915  141.7641  164.5336 C.3     1  UNL1        0.1177
     23 C         144.1862  140.8151  163.3768 C.ar    1  UNL1        0.0015
     24 C         144.2760  141.3325  161.9717 C.ar    1  UNL1       -0.0027
     25 C         144.1707  140.3835  160.8149 C.ar    1  UNL1       -0.0003
     26 C         143.9755  138.9171  161.0630 C.ar    1  UNL1       -0.0001
     27 C         143.8856  138.3997  162.4681 C.ar    1  UNL1        0.0036
     28 C         143.9910  139.3487  163.6250 C.ar    1  UNL1        0.0691
     29 C         143.9011  138.8313  165.0300 C.3     1  UNL1        0.4183
     30 F         143.8113  138.3139  166.4351 F       1  UNL1       -0.1659
     31 F         145.3979  138.8378  165.1282 F       1  UNL1       -0.1659
     32 F         142.4044  138.8248  164.9319 F       1  UNL1       -0.1659
@<TRIPOS>BOND
     1    10     9    1
     2    10    11    1
     3    10     2    1
     4     2     3    2
     5     2     4   am
     6     4     5    1
     7     5     6    1
     8     6     7    1
     9     7     1    1
    10     1    22    1
    11    22    23    1
    12    23    24   ar
    13    24    25   ar
    14    25    26   ar
    15    26    27   ar
    16    27    28   ar
    17    28    29    1
    18    29    30    1
    19    29    31    1
    20    29    32    1
    21     1    13    1
    22    13    14   ar
    23    14    15   ar
    24    15    16   ar
    25    16    20    1
    26    20    21    3
    27    16    17   ar
    28    17    18    1
    29    17    19   ar
    30     7     8    1
    31     8     4    1
    32    28    23   ar
    33    19    13   ar
    34    11    12    1
