@<TRIPOS>MOLECULE
*****
 22 24 0 0 0
SMALL
GASTEIGER

@<TRIPOS>ATOM
      1 S         139.4800  142.2641  164.5429 S.O2    1  UNL1        0.0346
      2 O         140.9125  142.7074  164.5071 O.2     1  UNL1       -0.1637
      3 O         138.0475  141.8207  164.5786 O.2     1  UNL1       -0.1637
      4 C         139.6811  141.7264  165.9287 C.ar    1  UNL1        0.1109
      5 C         139.1701  140.3619  166.2853 C.ar    1  UNL1        0.0188
      6 C         139.3711  139.8243  167.6711 C.ar    1  UNL1        0.0013
      7 C         140.0831  140.6511  168.7004 C.ar    1  UNL1        0.0001
      8 C         140.2841  140.1135  170.0862 C.ar    1  UNL1        0.0000
      9 C         140.9960  140.9403  171.1155 C.ar    1  UNL1        0.0000
     10 C         141.5070  142.3048  170.7590 C.ar    1  UNL1        0.0000
     11 C         141.3060  142.8424  169.3732 C.ar    1  UNL1        0.0000
     12 C         140.5940  142.0156  168.3439 C.ar    1  UNL1        0.0013
     13 C         140.3930  142.5533  166.9580 C.ar    1  UNL1        0.0188
     14 C         139.6614  143.9191  161.0367 C.ar    1  UNL1        0.1052
     15 N         138.2782  143.3391  161.0123 N.ar    1  UNL1       -0.2384
     16 C         138.0420  142.6485  162.3227 C.ar    1  UNL1        0.1244
     17 C         139.2791  142.8017  163.1571 C.ar    1  UNL1        0.1599
     18 S         140.2799  143.5870  162.3622 S.2     1  UNL1       -0.0508
     19 N         141.6012  145.4196  160.1792 N.3     1  UNL1       -0.3157
     20 C         140.3117  144.6950  159.9299 C.3     1  UNL1        0.1186
     21 H         141.8976  145.8900  159.3240 H       1  UNL1        0.1192
     22 H         142.3168  144.7515  160.4653 H       1  UNL1        0.1192
@<TRIPOS>BOND
     1    19    20    1
     2    20    14    1
     3    14    15   ar
     4    15    16   ar
     5    16    17   ar
     6    17     1    1
     7     1     2    2
     8     1     3    2
     9     1     4    1
    10     4     5   ar
    11     5     6   ar
    12     6     7   ar
    13     7     8   ar
    14     8     9   ar
    15     9    10   ar
    16    10    11   ar
    17    11    12   ar
    18    12    13   ar
    19    17    18   ar
    20    18    14   ar
    21    13     4   ar
    22    12     7   ar
    23    19    21    1
    24    19    22    1
@<TRIPOS>MOLECULE
*****
 22 24 0 0 0
SMALL
GASTEIGER

@<TRIPOS>ATOM
      1 S         139.8714  143.6352  163.3946 S.O2    1  UNL1        0.0346
      2 O         140.9004  142.7407  162.7693 O.2     1  UNL1       -0.1637
      3 O         138.8423  144.5296  164.0199 O.2     1  UNL1       -0.1637
      4 C         139.8091  142.7290  164.5884 C.ar    1  UNL1        0.1109
      5 C         139.2691  141.3368  164.4459 C.ar    1  UNL1        0.0188
      6 C         139.2068  140.4307  165.6396 C.ar    1  UNL1        0.0013
      7 C         139.6847  140.9166  166.9759 C.ar    1  UNL1        0.0001
      8 C         139.6224  140.0104  168.1695 C.ar    1  UNL1        0.0000
      9 C         140.1002  140.4964  169.5057 C.ar    1  UNL1        0.0000
     10 C         140.6403  141.8885  169.6483 C.ar    1  UNL1        0.0000
     11 C         140.7026  142.7947  168.4546 C.ar    1  UNL1        0.0000
     12 C         140.2247  142.3087  167.1184 C.ar    1  UNL1        0.0013
     13 C         140.2870  143.2149  165.9246 C.ar    1  UNL1        0.0188
     14 C         140.3673  145.3939  159.9702 C.ar    1  UNL1        0.1052
     15 N         139.6916  146.4774  160.7575 N.ar    1  UNL1       -0.2384
     16 C         139.4237  145.9504  162.1361 C.ar    1  UNL1        0.1244
     17 C         139.9336  144.5413  162.2009 C.ar    1  UNL1        0.1599
     18 S         140.5168  144.1973  160.8623 S.2     1  UNL1       -0.0508
     19 N         142.2382  145.8401  158.2238 N.3     1  UNL1       -0.3157
     20 C         140.8147  145.4901  158.5418 C.3     1  UNL1        0.1186
     21 H         142.3653  145.8611  157.2119 H       1  UNL1        0.1192
     22 H         142.8593  145.1403  158.6299 H       1  UNL1        0.1192
@<TRIPOS>BOND
     1    19    20    1
     2    20    14    1
     3    14    15   ar
     4    15    16   ar
     5    16    17   ar
     6    17     1    1
     7     1     2    2
     8     1     3    2
     9     1     4    1
    10     4     5   ar
    11     5     6   ar
    12     6     7   ar
    13     7     8   ar
    14     8     9   ar
    15     9    10   ar
    16    10    11   ar
    17    11    12   ar
    18    12    13   ar
    19    17    18   ar
    20    18    14   ar
    21    13     4   ar
    22    12     7   ar
    23    19    21    1
    24    19    22    1
@<TRIPOS>MOLECULE
*****
 22 24 0 0 0
SMALL
GASTEIGER

@<TRIPOS>ATOM
      1 S         140.8499  143.4771  164.4081 S.O2    1  UNL1        0.0346
      2 O         142.1876  143.2550  163.7670 O.2     1  UNL1       -0.1637
      3 O         139.5122  143.6991  165.0492 O.2     1  UNL1       -0.1637
      4 C         141.3075  142.7255  165.6230 C.ar    1  UNL1        0.1109
      5 C         142.7730  142.5841  165.9095 C.ar    1  UNL1        0.0188
      6 C         143.2306  141.8326  167.1243 C.ar    1  UNL1        0.0013
      7 C         142.2226  141.2225  168.0527 C.ar    1  UNL1        0.0001
      8 C         142.6802  140.4710  169.2676 C.ar    1  UNL1        0.0000
      9 C         141.6723  139.8610  170.1959 C.ar    1  UNL1        0.0000
     10 C         140.2067  140.0025  169.9094 C.ar    1  UNL1        0.0000
     11 C         139.7491  140.7540  168.6945 C.ar    1  UNL1        0.0000
     12 C         140.7571  141.3640  167.7662 C.ar    1  UNL1        0.0013
     13 C         140.2995  142.1155  166.5513 C.ar    1  UNL1        0.0188
     14 C         140.2478  145.0827  160.9260 C.ar    1  UNL1        0.1052
     15 N         139.1289  145.6873  161.7215 N.ar    1  UNL1       -0.2384
     16 C         139.2183  145.1594  163.1226 C.ar    1  UNL1        0.1244
     17 C         140.3924  144.2285  163.1933 C.ar    1  UNL1        0.1599
     18 S         141.0286  144.1811  161.8357 S.2     1  UNL1       -0.0508
     19 N         141.9111  145.7497  159.0450 N.3     1  UNL1       -0.3157
     20 C         140.5353  145.3353  159.4757 C.3     1  UNL1        0.1186
     21 H         141.9265  145.8772  158.0331 H       1  UNL1        0.1192
     22 H         142.5815  145.0269  159.3068 H       1  UNL1        0.1192
@<TRIPOS>BOND
     1    19    20    1
     2    20    14    1
     3    14    15   ar
     4    15    16   ar
     5    16    17   ar
     6    17     1    1
     7     1     2    2
     8     1     3    2
     9     1     4    1
    10     4     5   ar
    11     5     6   ar
    12     6     7   ar
    13     7     8   ar
    14     8     9   ar
    15     9    10   ar
    16    10    11   ar
    17    11    12   ar
    18    12    13   ar
    19    17    18   ar
    20    18    14   ar
    21    13     4   ar
    22    12     7   ar
    23    19    21    1
    24    19    22    1
@<TRIPOS>MOLECULE
*****
 22 24 0 0 0
SMALL
GASTEIGER

@<TRIPOS>ATOM
      1 S         140.1055  140.4302  167.2180 S.O2    1  UNL1        0.0346
      2 O         139.1362  139.5823  167.9870 O.2     1  UNL1       -0.1637
      3 O         141.0748  141.2781  166.4489 O.2     1  UNL1       -0.1637
      4 C         139.5854  139.8586  165.9323 C.ar    1  UNL1        0.1109
      5 C         139.5295  138.3719  165.7408 C.ar    1  UNL1        0.0188
      6 C         139.0094  137.8003  164.4552 C.ar    1  UNL1        0.0013
      7 C         138.5451  138.7154  163.3611 C.ar    1  UNL1        0.0001
      8 C         138.0250  138.1438  162.0755 C.ar    1  UNL1        0.0000
      9 C         137.5607  139.0589  160.9815 C.ar    1  UNL1        0.0000
     10 C         137.6166  140.5456  161.1730 C.ar    1  UNL1        0.0000
     11 C         138.1367  141.1172  162.4585 C.ar    1  UNL1        0.0000
     12 C         138.6009  140.2021  163.5526 C.ar    1  UNL1        0.0013
     13 C         139.1211  140.7737  164.8382 C.ar    1  UNL1        0.0188
     14 C         141.9611  142.2457  170.1034 C.ar    1  UNL1        0.1052
     15 N         140.8908  141.5167  170.8605 N.ar    1  UNL1       -0.2384
     16 C         140.0655  140.7478  169.8717 C.ar    1  UNL1        0.1244
     17 C         140.6256  141.0017  168.5036 C.ar    1  UNL1        0.1599
     18 S         141.7971  141.9275  168.6468 S.2     1  UNL1       -0.0508
     19 N         144.4467  142.9769  170.2950 N.3     1  UNL1       -0.3157
     20 C         143.0109  143.1366  170.6985 C.3     1  UNL1        0.1186
     21 H         145.0179  143.6594  170.7935 H       1  UNL1        0.1192
     22 H         144.5363  143.1277  169.2902 H       1  UNL1        0.1192
@<TRIPOS>BOND
     1    19    20    1
     2    20    14    1
     3    14    15   ar
     4    15    16   ar
     5    16    17   ar
     6    17     1    1
     7     1     2    2
     8     1     3    2
     9     1     4    1
    10     4     5   ar
    11     5     6   ar
    12     6     7   ar
    13     7     8   ar
    14     8     9   ar
    15     9    10   ar
    16    10    11   ar
    17    11    12   ar
    18    12    13   ar
    19    17    18   ar
    20    18    14   ar
    21    13     4   ar
    22    12     7   ar
    23    19    21    1
    24    19    22    1
@<TRIPOS>MOLECULE
*****
 22 24 0 0 0
SMALL
GASTEIGER

@<TRIPOS>ATOM
      1 S         140.4526  142.0179  166.7760 S.O2    1  UNL1        0.0346
      2 O         139.5131  141.0139  166.1767 O.2     1  UNL1       -0.1637
      3 O         141.3921  143.0219  167.3753 O.2     1  UNL1       -0.1637
      4 C         140.2231  142.9301  165.6075 C.ar    1  UNL1        0.1109
      5 C         139.1440  143.9701  165.6686 C.ar    1  UNL1        0.0188
      6 C         138.9144  144.8823  164.5002 C.ar    1  UNL1        0.0013
      7 C         139.7641  144.7545  163.2706 C.ar    1  UNL1        0.0001
      8 C         139.5346  145.6667  162.1022 C.ar    1  UNL1        0.0000
      9 C         140.3842  145.5388  160.8727 C.ar    1  UNL1        0.0000
     10 C         141.4634  144.4987  160.8116 C.ar    1  UNL1        0.0000
     11 C         141.6929  143.5866  161.9800 C.ar    1  UNL1        0.0000
     12 C         140.8433  143.7144  163.2095 C.ar    1  UNL1        0.0013
     13 C         141.0727  142.8022  164.3780 C.ar    1  UNL1        0.0188
     14 C         141.7754  139.8024  169.6755 C.ar    1  UNL1        0.1052
     15 N         140.2949  139.6015  169.8093 N.ar    1  UNL1       -0.2384
     16 C         139.6192  140.4070  168.7395 C.ar    1  UNL1        0.1244
     17 C         140.6821  141.1057  167.9444 C.ar    1  UNL1        0.1599
     18 S         142.0146  140.7321  168.5229 S.2     1  UNL1       -0.0508
     19 N         143.1104  137.7118  170.4480 N.3     1  UNL1       -0.3157
     20 C         142.8312  139.1825  170.5422 C.3     1  UNL1        0.1186
     21 H         143.8520  137.4639  171.1031 H       1  UNL1        0.1192
     22 H         143.4043  137.4816  169.4988 H       1  UNL1        0.1192
@<TRIPOS>BOND
     1    19    20    1
     2    20    14    1
     3    14    15   ar
     4    15    16   ar
     5    16    17   ar
     6    17     1    1
     7     1     2    2
     8     1     3    2
     9     1     4    1
    10     4     5   ar
    11     5     6   ar
    12     6     7   ar
    13     7     8   ar
    14     8     9   ar
    15     9    10   ar
    16    10    11   ar
    17    11    12   ar
    18    12    13   ar
    19    17    18   ar
    20    18    14   ar
    21    13     4   ar
    22    12     7   ar
    23    19    21    1
    24    19    22    1
@<TRIPOS>MOLECULE
*****
 22 24 0 0 0
SMALL
GASTEIGER

@<TRIPOS>ATOM
      1 S         141.9646  139.0658  164.1836 S.O2    1  UNL1        0.0346
      2 O         143.2566  138.6910  164.8470 O.2     1  UNL1       -0.1637
      3 O         140.6725  139.4405  163.5203 O.2     1  UNL1       -0.1637
      4 C         141.3673  139.3785  165.5237 C.ar    1  UNL1        0.1109
      5 C         139.8791  139.4906  165.6738 C.ar    1  UNL1        0.0188
      6 C         139.2819  139.8033  167.0137 C.ar    1  UNL1        0.0013
      7 C         140.1729  140.0038  168.2037 C.ar    1  UNL1        0.0001
      8 C         139.5757  140.3165  169.5436 C.ar    1  UNL1        0.0000
      9 C         140.4667  140.5170  170.7335 C.ar    1  UNL1        0.0000
     10 C         141.9550  140.4048  170.5834 C.ar    1  UNL1        0.0000
     11 C         142.5522  140.0922  169.2435 C.ar    1  UNL1        0.0000
     12 C         141.6612  139.8917  168.0536 C.ar    1  UNL1        0.0013
     13 C         142.2584  139.5790  166.7136 C.ar    1  UNL1        0.0188
     14 C         142.7931  138.1826  160.4960 C.ar    1  UNL1        0.1052
     15 N         144.1685  138.3612  161.0674 N.ar    1  UNL1       -0.2384
     16 C         144.0255  138.7138  162.5183 C.ar    1  UNL1        0.1244
     17 C         142.5618  138.7531  162.8437 C.ar    1  UNL1        0.1599
     18 S         141.8001  138.4248  161.5938 S.2     1  UNL1       -0.0508
     19 N         143.2610  138.4217  157.9516 N.3     1  UNL1       -0.3157
     20 C         142.4679  137.8246  159.0761 C.3     1  UNL1        0.1186
     21 H         142.9064  138.0711  157.0618 H       1  UNL1        0.1192
     22 H         144.2423  138.1624  158.0526 H       1  UNL1        0.1192
@<TRIPOS>BOND
     1    19    20    1
     2    20    14    1
     3    14    15   ar
     4    15    16   ar
     5    16    17   ar
     6    17     1    1
     7     1     2    2
     8     1     3    2
     9     1     4    1
    10     4     5   ar
    11     5     6   ar
    12     6     7   ar
    13     7     8   ar
    14     8     9   ar
    15     9    10   ar
    16    10    11   ar
    17    11    12   ar
    18    12    13   ar
    19    17    18   ar
    20    18    14   ar
    21    13     4   ar
    22    12     7   ar
    23    19    21    1
    24    19    22    1
@<TRIPOS>MOLECULE
*****
 22 24 0 0 0
SMALL
GASTEIGER

@<TRIPOS>ATOM
      1 S         138.7032  142.2404  160.3621 S.O2    1  UNL1        0.0346
      2 O         138.6259  140.8827  159.7290 O.2     1  UNL1       -0.1637
      3 O         138.7804  143.5980  160.9952 O.2     1  UNL1       -0.1637
      4 C         138.5385  141.6179  161.7170 C.ar    1  UNL1        0.1109
      5 C         137.9961  142.4308  162.8549 C.ar    1  UNL1        0.0188
      6 C         137.8315  141.8085  164.2097 C.ar    1  UNL1        0.0013
      7 C         138.2093  140.3731  164.4266 C.ar    1  UNL1        0.0001
      8 C         138.0447  139.7507  165.7814 C.ar    1  UNL1        0.0000
      9 C         138.4225  138.3154  165.9982 C.ar    1  UNL1        0.0000
     10 C         138.9650  137.5024  164.8603 C.ar    1  UNL1        0.0000
     11 C         139.1296  138.1248  163.5055 C.ar    1  UNL1        0.0000
     12 C         138.7518  139.5601  163.2886 C.ar    1  UNL1        0.0013
     13 C         138.9164  140.1826  161.9338 C.ar    1  UNL1        0.0188
     14 C         139.6941  144.2301  157.1802 C.ar    1  UNL1        0.1052
     15 N         138.5481  143.4109  156.6647 N.ar    1  UNL1       -0.2384
     16 C         138.0374  142.5659  157.7939 C.ar    1  UNL1        0.1244
     17 C         138.8678  142.8628  159.0073 C.ar    1  UNL1        0.1599
     18 S         139.8916  143.8913  158.6280 S.2     1  UNL1       -0.0508
     19 N         140.3188  146.6870  156.6117 N.3     1  UNL1       -0.3157
     20 C         140.5008  145.2151  156.3872 C.3     1  UNL1        0.1186
     21 H         140.9421  147.2050  155.9924 H       1  UNL1        0.1192
     22 H         140.5387  146.9127  157.5818 H       1  UNL1        0.1192
@<TRIPOS>BOND
     1    19    20    1
     2    20    14    1
     3    14    15   ar
     4    15    16   ar
     5    16    17   ar
     6    17     1    1
     7     1     2    2
     8     1     3    2
     9     1     4    1
    10     4     5   ar
    11     5     6   ar
    12     6     7   ar
    13     7     8   ar
    14     8     9   ar
    15     9    10   ar
    16    10    11   ar
    17    11    12   ar
    18    12    13   ar
    19    17    18   ar
    20    18    14   ar
    21    13     4   ar
    22    12     7   ar
    23    19    21    1
    24    19    22    1
@<TRIPOS>MOLECULE
*****
 22 24 0 0 0
SMALL
GASTEIGER

@<TRIPOS>ATOM
      1 S         142.5386  142.1064  163.7664 S.O2    1  UNL1        0.0346
      2 O         141.6810  143.2019  164.3271 O.2     1  UNL1       -0.1637
      3 O         143.3962  141.0110  163.2057 O.2     1  UNL1       -0.1637
      4 C         142.5355  141.4211  165.1008 C.ar    1  UNL1        0.1109
      5 C         142.2148  139.9587  165.1920 C.ar    1  UNL1        0.0188
      6 C         142.2116  139.2733  166.5262 C.ar    1  UNL1        0.0013
      7 C         142.5292  140.0505  167.7694 C.ar    1  UNL1        0.0001
      8 C         142.5261  139.3652  169.1036 C.ar    1  UNL1        0.0000
      9 C         142.8437  140.1423  170.3466 C.ar    1  UNL1        0.0000
     10 C         143.1644  141.6048  170.2554 C.ar    1  UNL1        0.0000
     11 C         143.1675  142.2901  168.9212 C.ar    1  UNL1        0.0000
     12 C         142.8499  141.5129  167.6781 C.ar    1  UNL1        0.0013
     13 C         142.8531  142.1983  166.3438 C.ar    1  UNL1        0.0188
     14 C         141.8474  144.0888  160.5018 C.ar    1  UNL1        0.1052
     15 N         143.2455  143.6039  160.2560 N.ar    1  UNL1       -0.2384
     16 C         143.6746  142.8023  161.4491 C.ar    1  UNL1        0.1244
     17 C         142.5417  142.7918  162.4322 C.ar    1  UNL1        0.1599
     18 S         141.4125  143.5868  161.8467 S.2     1  UNL1       -0.0508
     19 N         139.8475  145.6941  160.0858 N.3     1  UNL1       -0.3157
     20 C         141.0282  144.9282  159.5668 C.3     1  UNL1        0.1186
     21 H         139.4104  146.2057  159.3191 H       1  UNL1        0.1192
     22 H         140.1569  146.3523  160.8009 H       1  UNL1        0.1192
@<TRIPOS>BOND
     1    19    20    1
     2    20    14    1
     3    14    15   ar
     4    15    16   ar
     5    16    17   ar
     6    17     1    1
     7     1     2    2
     8     1     3    2
     9     1     4    1
    10     4     5   ar
    11     5     6   ar
    12     6     7   ar
    13     7     8   ar
    14     8     9   ar
    15     9    10   ar
    16    10    11   ar
    17    11    12   ar
    18    12    13   ar
    19    17    18   ar
    20    18    14   ar
    21    13     4   ar
    22    12     7   ar
    23    19    21    1
    24    19    22    1
@<TRIPOS>MOLECULE
*****
 22 24 0 0 0
SMALL
GASTEIGER

@<TRIPOS>ATOM
      1 S         141.5657  139.7343  166.3692 S.O2    1  UNL1        0.0346
      2 O         142.7953  139.2075  167.0479 O.2     1  UNL1       -0.1637
      3 O         140.3362  140.2611  165.6905 O.2     1  UNL1       -0.1637
      4 C         142.1921  139.4725  165.0315 C.ar    1  UNL1        0.1109
      5 C         143.6837  139.5177  164.8801 C.ar    1  UNL1        0.0188
      6 C         144.3100  139.2560  163.5425 C.ar    1  UNL1        0.0013
      7 C         143.4447  138.9490  162.3563 C.ar    1  UNL1        0.0001
      8 C         144.0710  138.6873  161.0187 C.ar    1  UNL1        0.0000
      9 C         143.2057  138.3804  159.8326 C.ar    1  UNL1        0.0000
     10 C         141.7140  138.3352  159.9840 C.ar    1  UNL1        0.0000
     11 C         141.0877  138.5970  161.3216 C.ar    1  UNL1        0.0000
     12 C         141.9530  138.9039  162.5077 C.ar    1  UNL1        0.0013
     13 C         141.3267  139.1656  163.8454 C.ar    1  UNL1        0.0188
     14 C         140.6458  140.5930  170.0409 C.ar    1  UNL1        0.1052
     15 N         139.3059  140.2046  169.4896 N.ar    1  UNL1       -0.2384
     16 C         139.4875  139.8357  168.0471 C.ar    1  UNL1        0.1244
     17 C         140.9395  139.9960  167.7068 C.ar    1  UNL1        0.1599
     18 S         141.6554  140.4641  168.9391 S.2     1  UNL1       -0.0508
     19 N         142.0082  142.0367  171.7170 N.3     1  UNL1       -0.3157
     20 C         140.9267  141.0330  171.4472 C.3     1  UNL1        0.1186
     21 H         142.0610  142.2184  172.7193 H       1  UNL1        0.1192
     22 H         141.7971  142.9047  171.2247 H       1  UNL1        0.1192
@<TRIPOS>BOND
     1    19    20    1
     2    20    14    1
     3    14    15   ar
     4    15    16   ar
     5    16    17   ar
     6    17     1    1
     7     1     2    2
     8     1     3    2
     9     1     4    1
    10     4     5   ar
    11     5     6   ar
    12     6     7   ar
    13     7     8   ar
    14     8     9   ar
    15     9    10   ar
    16    10    11   ar
    17    11    12   ar
    18    12    13   ar
    19    17    18   ar
    20    18    14   ar
    21    13     4   ar
    22    12     7   ar
    23    19    21    1
    24    19    22    1
