@<TRIPOS>MOLECULE
*****
 37 41 0 0 0
SMALL
GASTEIGER

@<TRIPOS>ATOM
      1 C         139.0509  146.1517  155.2929 C.2     1  UNL1        0.2495
      2 O         137.7880  145.4707  154.8557 O.2     1  UNL1       -0.2699
      3 N         139.8448  145.5962  156.4379 N.am    1  UNL1       -0.2660
      4 C         141.1077  146.2772  156.8752 C.3     1  UNL1        0.1160
      5 C         141.9016  145.7216  158.0203 C.3     1  UNL1        0.1197
      6 N         141.4326  144.4851  158.7280 N.am    1  UNL1       -0.2555
      7 C         140.1697  143.8041  158.2907 C.2     1  UNL1        0.2497
      8 O         139.7007  142.5675  158.9984 O.2     1  UNL1       -0.2727
      9 C         139.3758  144.3596  157.1457 C.3     1  UNL1        0.1799
     10 C         139.4949  149.9721  154.3144 C.ar    1  UNL1        0.1059
     11 C         140.4578  149.8615  153.1697 C.ar    1  UNL1        0.0183
     12 C         140.9518  148.5143  152.7327 C.ar    1  UNL1        0.0015
     13 C         140.4828  147.2777  153.4404 C.ar    1  UNL1        0.0046
     14 C         139.5199  147.3883  154.5851 C.ar    1  UNL1        0.0549
     15 C         139.0259  148.7356  155.0221 C.ar    1  UNL1        0.0229
     16 C         138.5069  152.6666  155.1884 C.3     1  UNL1        0.1816
     17 S         139.0009  151.3194  154.7514 S.O2    1  UNL1        0.0105
     18 O         139.9310  151.9770  153.7755 O.2     1  UNL1       -0.1686
     19 O         138.0708  150.6618  155.7274 O.2     1  UNL1       -0.1686
     20 C         142.2265  143.9296  159.8730 C.ar    1  UNL1        0.0541
     21 C         141.9268  144.3678  161.2759 C.ar    1  UNL1        0.0180
     22 C         142.7208  143.8122  162.4209 C.ar    1  UNL1        0.0382
     23 C         143.8144  142.8185  162.1630 C.ar    1  UNL1        0.1385
     24 C         144.1141  142.3803  160.7601 C.ar    1  UNL1        0.0382
     25 C         143.3202  142.9358  159.6151 C.ar    1  UNL1        0.0180
     26 O         144.6083  142.2630  163.3080 O.3     1  UNL1       -0.4791
     27 C         143.9092  141.8089  164.5550 C.3     1  UNL1        0.1687
     28 C         143.2507  140.4618  164.5975 C.3     1  UNL1        0.0609
     29 C         142.5516  140.0077  165.8445 C.3     1  UNL1        0.0758
     30 N         142.5109  140.9007  167.0490 N.3     1  UNL1       -0.2737
     31 C         143.1693  142.2478  167.0065 C.3     1  UNL1        0.0758
     32 C         143.8685  142.7019  165.7596 C.3     1  UNL1        0.0609
     33 C         141.8117  140.4466  168.2960 C.3     1  UNL1        0.0575
     34 C         142.4116  139.6129  169.3893 C.3     1  UNL1        0.0160
     35 C         141.3605  139.3976  170.4376 C.3     1  UNL1        0.0014
     36 C         140.1111  140.0981  169.9923 C.3     1  UNL1        0.0014
     37 C         140.3900  140.7464  168.6687 C.3     1  UNL1        0.0160
@<TRIPOS>BOND
     1    16    17    1
     2    17    18    2
     3    17    19    2
     4    17    10    1
     5    10    11   ar
     6    11    12   ar
     7    12    13   ar
     8    13    14   ar
     9    14     1    1
    10     1     2    2
    11     1     3   am
    12     3     4    1
    13     4     5    1
    14     5     6    1
    15     6    20    1
    16    20    21   ar
    17    21    22   ar
    18    22    23   ar
    19    23    26    1
    20    26    27    1
    21    27    28    1
    22    28    29    1
    23    29    30    1
    24    30    33    1
    25    33    34    1
    26    34    35    1
    27    35    36    1
    28    36    37    1
    29    30    31    1
    30    31    32    1
    31    23    24   ar
    32    24    25   ar
    33     6     7   am
    34     7     8    2
    35     7     9    1
    36    14    15   ar
    37    15    10   ar
    38     9     3    1
    39    25    20   ar
    40    32    27    1
    41    37    33    1
@<TRIPOS>MOLECULE
*****
 37 41 0 0 0
SMALL
GASTEIGER

@<TRIPOS>ATOM
      1 C         139.2897  139.0650  165.7421 C.2     1  UNL1        0.2495
      2 O         138.3218  137.9829  166.1196 O.2     1  UNL1       -0.2699
      3 N         139.3172  139.5901  164.3374 N.am    1  UNL1       -0.2660
      4 C         140.2851  140.6721  163.9600 C.3     1  UNL1        0.1160
      5 C         140.3126  141.1972  162.5551 C.3     1  UNL1        0.1197
      6 N         139.3722  140.6402  161.5277 N.am    1  UNL1       -0.2555
      7 C         138.4044  139.5582  161.9051 C.2     1  UNL1        0.2497
      8 O         137.4640  139.0013  160.8777 O.2     1  UNL1       -0.2727
      9 C         138.3769  139.0331  163.3099 C.3     1  UNL1        0.1799
     10 C         140.6696  141.1521  168.8227 C.ar    1  UNL1        0.1059
     11 C         142.1106  140.7358  168.8245 C.ar    1  UNL1        0.0183
     12 C         142.6114  139.7625  167.7988 C.ar    1  UNL1        0.0015
     13 C         141.6711  139.2056  166.7713 C.ar    1  UNL1        0.0046
     14 C         140.2301  139.6219  166.7696 C.ar    1  UNL1        0.0549
     15 C         139.7293  140.5951  167.7953 C.ar    1  UNL1        0.0229
     16 C         139.6681  143.0985  170.8742 C.3     1  UNL1        0.1816
     17 S         140.1688  142.1253  169.8484 S.O2    1  UNL1        0.0105
     18 O         139.8238  140.9859  170.7610 O.2     1  UNL1       -0.1686
     19 O         140.5139  143.2646  168.9359 O.2     1  UNL1       -0.1686
     20 C         139.3998  141.1653  160.1229 C.ar    1  UNL1        0.0541
     21 C         140.2773  140.5136  159.0957 C.ar    1  UNL1        0.0180
     22 C         140.3048  141.0388  157.6908 C.ar    1  UNL1        0.0382
     23 C         139.4548  142.2156  157.3133 C.ar    1  UNL1        0.1385
     24 C         138.5773  142.8673  158.3405 C.ar    1  UNL1        0.0382
     25 C         138.5498  142.3422  159.7453 C.ar    1  UNL1        0.0180
     26 O         139.4823  142.7407  155.9085 O.3     1  UNL1       -0.4791
     27 C         139.4310  144.2189  155.6592 C.3     1  UNL1        0.1687
     28 C         138.1466  144.8626  155.2279 C.3     1  UNL1        0.0609
     29 C         138.0953  146.3409  154.9786 C.3     1  UNL1        0.0758
     30 N         139.3282  147.1754  155.1607 N.3     1  UNL1       -0.2737
     31 C         140.6127  146.5318  155.5920 C.3     1  UNL1        0.0758
     32 C         140.6640  145.0535  155.8413 C.3     1  UNL1        0.0609
     33 C         139.2769  148.6537  154.9114 C.3     1  UNL1        0.0575
     34 C         138.5738  149.6678  155.7643 C.3     1  UNL1        0.0160
     35 C         138.7820  151.0182  155.1454 C.3     1  UNL1        0.0014
     36 C         139.6137  150.8388  153.9101 C.3     1  UNL1        0.0014
     37 C         139.9196  149.3775  153.7655 C.3     1  UNL1        0.0160
@<TRIPOS>BOND
     1    16    17    1
     2    17    18    2
     3    17    19    2
     4    17    10    1
     5    10    11   ar
     6    11    12   ar
     7    12    13   ar
     8    13    14   ar
     9    14     1    1
    10     1     2    2
    11     1     3   am
    12     3     4    1
    13     4     5    1
    14     5     6    1
    15     6    20    1
    16    20    21   ar
    17    21    22   ar
    18    22    23   ar
    19    23    26    1
    20    26    27    1
    21    27    28    1
    22    28    29    1
    23    29    30    1
    24    30    33    1
    25    33    34    1
    26    34    35    1
    27    35    36    1
    28    36    37    1
    29    30    31    1
    30    31    32    1
    31    23    24   ar
    32    24    25   ar
    33     6     7   am
    34     7     8    2
    35     7     9    1
    36    14    15   ar
    37    15    10   ar
    38     9     3    1
    39    25    20   ar
    40    32    27    1
    41    37    33    1
@<TRIPOS>MOLECULE
*****
 37 41 0 0 0
SMALL
GASTEIGER

@<TRIPOS>ATOM
      1 C         139.7081  142.4480  165.1049 C.2     1  UNL1        0.2495
      2 O         139.0684  143.8034  165.0438 O.2     1  UNL1       -0.2699
      3 N         140.0465  141.7205  163.8376 N.am    1  UNL1       -0.2660
      4 C         140.6862  140.3652  163.8987 C.3     1  UNL1        0.1160
      5 C         141.0245  139.6377  162.6313 C.3     1  UNL1        0.1197
      6 N         140.7232  140.2655  161.3028 N.am    1  UNL1       -0.2555
      7 C         140.0834  141.6209  161.2416 C.2     1  UNL1        0.2497
      8 O         139.7821  142.2488  159.9132 O.2     1  UNL1       -0.2727
      9 C         139.7451  142.3484  162.5090 C.3     1  UNL1        0.1799
     10 C         141.2443  141.8731  168.7187 C.ar    1  UNL1        0.1059
     11 C         140.6123  140.5646  169.0905 C.ar    1  UNL1        0.0183
     12 C         139.6789  139.8839  168.1338 C.ar    1  UNL1        0.0015
     13 C         139.3775  140.5117  166.8053 C.ar    1  UNL1        0.0046
     14 C         140.0095  141.8202  166.4335 C.ar    1  UNL1        0.0549
     15 C         140.9430  142.5009  167.3902 C.ar    1  UNL1        0.0229
     16 C         143.1112  143.2345  170.6322 C.3     1  UNL1        0.1816
     17 S         142.1778  142.5538  169.6754 S.O2    1  UNL1        0.0105
     18 O         141.0208  142.8788  170.5731 O.2     1  UNL1       -0.1686
     19 O         143.3348  142.2288  168.7778 O.2     1  UNL1       -0.1686
     20 C         141.0615  139.5380  160.0354 C.ar    1  UNL1        0.0541
     21 C         142.4826  139.4835  159.5584 C.ar    1  UNL1        0.0180
     22 C         142.8209  138.7559  158.2910 C.ar    1  UNL1        0.0382
     23 C         141.7381  138.0830  157.5007 C.ar    1  UNL1        0.1385
     24 C         140.3170  138.1375  157.9776 C.ar    1  UNL1        0.0382
     25 C         139.9787  138.8650  159.2450 C.ar    1  UNL1        0.0180
     26 O         142.0765  137.3555  156.2333 O.3     1  UNL1       -0.4791
     27 C         142.1712  135.8585  156.2303 C.3     1  UNL1        0.1687
     28 C         141.2817  135.0525  155.3307 C.3     1  UNL1        0.0609
     29 C         141.3764  133.5555  155.3277 C.3     1  UNL1        0.0758
     30 N         142.3606  132.8645  156.2241 N.3     1  UNL1       -0.2737
     31 C         143.2502  133.6704  157.1237 C.3     1  UNL1        0.0758
     32 C         143.1555  135.1674  157.1268 C.3     1  UNL1        0.0609
     33 C         142.4553  131.3674  156.2211 C.3     1  UNL1        0.0575
     34 C         143.3150  130.5365  157.1270 C.3     1  UNL1        0.0160
     35 C         143.0979  129.0940  156.7773 C.3     1  UNL1        0.0014
     36 C         142.1041  129.0335  155.6554 C.3     1  UNL1        0.0014
     37 C         141.7070  130.4385  155.3116 C.3     1  UNL1        0.0160
@<TRIPOS>BOND
     1    16    17    1
     2    17    18    2
     3    17    19    2
     4    17    10    1
     5    10    11   ar
     6    11    12   ar
     7    12    13   ar
     8    13    14   ar
     9    14     1    1
    10     1     2    2
    11     1     3   am
    12     3     4    1
    13     4     5    1
    14     5     6    1
    15     6    20    1
    16    20    21   ar
    17    21    22   ar
    18    22    23   ar
    19    23    26    1
    20    26    27    1
    21    27    28    1
    22    28    29    1
    23    29    30    1
    24    30    33    1
    25    33    34    1
    26    34    35    1
    27    35    36    1
    28    36    37    1
    29    30    31    1
    30    31    32    1
    31    23    24   ar
    32    24    25   ar
    33     6     7   am
    34     7     8    2
    35     7     9    1
    36    14    15   ar
    37    15    10   ar
    38     9     3    1
    39    25    20   ar
    40    32    27    1
    41    37    33    1
@<TRIPOS>MOLECULE
*****
 37 41 0 0 0
SMALL
GASTEIGER

@<TRIPOS>ATOM
      1 C         142.5300  136.7804  154.9380 C.2     1  UNL1        0.2495
      2 O         142.5456  137.2506  153.5137 O.2     1  UNL1       -0.2699
      3 N         142.5727  137.7778  156.0575 N.am    1  UNL1       -0.2660
      4 C         142.5570  137.3076  157.4818 C.3     1  UNL1        0.1160
      5 C         142.5997  138.3050  158.6014 C.3     1  UNL1        0.1197
      6 N         142.6580  139.7725  158.2967 N.am    1  UNL1       -0.2555
      7 C         142.6737  140.2427  156.8723 C.2     1  UNL1        0.2497
      8 O         142.7320  141.7102  156.5676 O.2     1  UNL1       -0.2727
      9 C         142.6310  139.2454  155.7528 C.3     1  UNL1        0.1799
     10 C         143.4759  133.2128  156.3966 C.ar    1  UNL1        0.1059
     11 C         142.3551  132.3778  155.8522 C.ar    1  UNL1        0.0183
     12 C         141.2926  133.0102  155.0031 C.ar    1  UNL1        0.0015
     13 C         141.3509  134.4778  154.6983 C.ar    1  UNL1        0.0046
     14 C         142.4717  135.3128  155.2427 C.ar    1  UNL1        0.0549
     15 C         143.5342  134.6804  156.0918 C.ar    1  UNL1        0.0229
     16 C         145.6010  131.9479  158.0949 C.3     1  UNL1        0.1816
     17 S         144.5384  132.5804  157.2457 S.O2    1  UNL1        0.0105
     18 O         144.2886  133.5996  158.3175 O.2     1  UNL1       -0.1686
     19 O         144.7883  131.5611  156.1739 O.2     1  UNL1       -0.1686
     20 C         142.7007  140.7699  159.4162 C.ar    1  UNL1        0.0541
     21 C         144.0035  141.4011  159.8091 C.ar    1  UNL1        0.0180
     22 C         144.0461  142.3985  160.9287 C.ar    1  UNL1        0.0382
     23 C         142.7860  142.7646  161.6554 C.ar    1  UNL1        0.1385
     24 C         141.4832  142.1334  161.2625 C.ar    1  UNL1        0.0382
     25 C         141.4406  141.1360  160.1429 C.ar    1  UNL1        0.0180
     26 O         142.8287  143.7620  162.7749 O.3     1  UNL1       -0.4791
     27 C         142.2623  143.4069  164.1177 C.3     1  UNL1        0.1687
     28 C         140.8390  143.7484  164.4455 C.3     1  UNL1        0.0609
     29 C         140.2726  143.3933  165.7883 C.3     1  UNL1        0.0758
     30 N         141.1296  142.6966  166.8033 N.3     1  UNL1       -0.2737
     31 C         142.5530  142.3551  166.4756 C.3     1  UNL1        0.0758
     32 C         143.1193  142.7102  165.1328 C.3     1  UNL1        0.0609
     33 C         140.5632  142.3415  168.1461 C.3     1  UNL1        0.0575
     34 C         140.4096  143.2723  169.3124 C.3     1  UNL1        0.0160
     35 C         139.8024  142.4993  170.4455 C.3     1  UNL1        0.0014
     36 C         139.5808  141.0908  169.9796 C.3     1  UNL1        0.0014
     37 C         140.0510  140.9933  168.5585 C.3     1  UNL1        0.0160
@<TRIPOS>BOND
     1    16    17    1
     2    17    18    2
     3    17    19    2
     4    17    10    1
     5    10    11   ar
     6    11    12   ar
     7    12    13   ar
     8    13    14   ar
     9    14     1    1
    10     1     2    2
    11     1     3   am
    12     3     4    1
    13     4     5    1
    14     5     6    1
    15     6    20    1
    16    20    21   ar
    17    21    22   ar
    18    22    23   ar
    19    23    26    1
    20    26    27    1
    21    27    28    1
    22    28    29    1
    23    29    30    1
    24    30    33    1
    25    33    34    1
    26    34    35    1
    27    35    36    1
    28    36    37    1
    29    30    31    1
    30    31    32    1
    31    23    24   ar
    32    24    25   ar
    33     6     7   am
    34     7     8    2
    35     7     9    1
    36    14    15   ar
    37    15    10   ar
    38     9     3    1
    39    25    20   ar
    40    32    27    1
    41    37    33    1
@<TRIPOS>MOLECULE
*****
 37 41 0 0 0
SMALL
GASTEIGER

@<TRIPOS>ATOM
      1 C         138.5269  138.8807  154.6230 C.2     1  UNL1        0.2495
      2 O         138.8468  137.9341  153.5042 O.2     1  UNL1       -0.2699
      3 N         139.3321  138.8460  155.8881 N.am    1  UNL1       -0.2660
      4 C         139.0122  139.7926  157.0069 C.3     1  UNL1        0.1160
      5 C         139.8174  139.7578  158.2720 C.3     1  UNL1        0.1197
      6 N         140.9424  138.7766  158.4183 N.am    1  UNL1       -0.2555
      7 C         141.2623  137.8300  157.2995 C.2     1  UNL1        0.2497
      8 O         142.3873  136.8487  157.4458 O.2     1  UNL1       -0.2727
      9 C         140.4572  137.8647  156.0344 C.3     1  UNL1        0.1799
     10 C         134.9692  140.5935  155.0215 C.ar    1  UNL1        0.1059
     11 C         135.1518  141.8244  154.1840 C.ar    1  UNL1        0.0183
     12 C         136.4594  142.0741  153.4929 C.ar    1  UNL1        0.0015
     13 C         137.5845  141.0929  153.6392 C.ar    1  UNL1        0.0046
     14 C         137.4019  139.8620  154.4766 C.ar    1  UNL1        0.0549
     15 C         136.0942  139.6123  155.1678 C.ar    1  UNL1        0.0229
     16 C         132.3539  140.0940  156.4038 C.3     1  UNL1        0.1816
     17 S         133.6615  140.3438  155.7126 S.O2    1  UNL1        0.0105
     18 O         133.0149  141.4050  154.8727 O.2     1  UNL1       -0.1686
     19 O         134.3082  139.2825  156.5526 O.2     1  UNL1       -0.1686
     20 C         141.7476  138.7419  159.6834 C.ar    1  UNL1        0.0541
     21 C         141.1827  138.0974  160.9145 C.ar    1  UNL1        0.0180
     22 C         141.9879  138.0627  162.1796 C.ar    1  UNL1        0.0382
     23 C         143.3579  138.6725  162.2136 C.ar    1  UNL1        0.1385
     24 C         143.9228  139.3169  160.9825 C.ar    1  UNL1        0.0382
     25 C         143.1177  139.3516  159.7174 C.ar    1  UNL1        0.0180
     26 O         144.1631  138.6378  163.4787 O.3     1  UNL1       -0.4791
     27 C         143.7386  139.4581  164.6606 C.3     1  UNL1        0.1687
     28 C         143.7284  140.9553  164.5696 C.3     1  UNL1        0.0609
     29 C         143.3039  141.7756  165.7516 C.3     1  UNL1        0.0758
     30 N         142.8897  141.0987  167.0244 N.3     1  UNL1       -0.2737
     31 C         142.8999  139.6015  167.1154 C.3     1  UNL1        0.0758
     32 C         143.3243  138.7812  165.9335 C.3     1  UNL1        0.0609
     33 C         142.4652  141.9190  168.2063 C.3     1  UNL1        0.0575
     34 C         143.3143  142.2565  169.3960 C.3     1  UNL1        0.0160
     35 C         142.4909  143.0920  170.3310 C.3     1  UNL1        0.0014
     36 C         141.1331  143.2708  169.7192 C.3     1  UNL1        0.0014
     37 C         141.1172  142.5459  168.4061 C.3     1  UNL1        0.0160
@<TRIPOS>BOND
     1    16    17    1
     2    17    18    2
     3    17    19    2
     4    17    10    1
     5    10    11   ar
     6    11    12   ar
     7    12    13   ar
     8    13    14   ar
     9    14     1    1
    10     1     2    2
    11     1     3   am
    12     3     4    1
    13     4     5    1
    14     5     6    1
    15     6    20    1
    16    20    21   ar
    17    21    22   ar
    18    22    23   ar
    19    23    26    1
    20    26    27    1
    21    27    28    1
    22    28    29    1
    23    29    30    1
    24    30    33    1
    25    33    34    1
    26    34    35    1
    27    35    36    1
    28    36    37    1
    29    30    31    1
    30    31    32    1
    31    23    24   ar
    32    24    25   ar
    33     6     7   am
    34     7     8    2
    35     7     9    1
    36    14    15   ar
    37    15    10   ar
    38     9     3    1
    39    25    20   ar
    40    32    27    1
    41    37    33    1
@<TRIPOS>MOLECULE
*****
 37 41 0 0 0
SMALL
GASTEIGER

@<TRIPOS>ATOM
      1 C         138.4693  141.4516  163.7447 C.2     1  UNL1        0.2495
      2 O         137.5752  142.6457  163.5879 O.2     1  UNL1       -0.2699
      3 N         139.0593  140.7922  162.5335 N.am    1  UNL1       -0.2660
      4 C         139.9535  139.5981  162.6903 C.3     1  UNL1        0.1160
      5 C         140.5435  138.9387  161.4790 C.3     1  UNL1        0.1197
      6 N         140.2393  139.4734  160.1110 N.am    1  UNL1       -0.2555
      7 C         139.3451  140.6675  159.9542 C.2     1  UNL1        0.2497
      8 O         139.0409  141.2022  158.5862 O.2     1  UNL1       -0.2727
      9 C         138.7551  141.3269  161.1654 C.3     1  UNL1        0.1799
     10 C         140.0554  141.0977  167.3654 C.ar    1  UNL1        0.1059
     11 C         139.3819  139.8477  167.8489 C.ar    1  UNL1        0.0183
     12 C         138.4042  139.1323  166.9644 C.ar    1  UNL1        0.0015
     13 C         138.1000  139.6669  165.5964 C.ar    1  UNL1        0.0046
     14 C         138.7735  140.9169  165.1128 C.ar    1  UNL1        0.0549
     15 C         139.7512  141.6323  165.9973 C.ar    1  UNL1        0.0229
     16 C         142.0108  142.5285  169.1344 C.3     1  UNL1        0.1816
     17 S         141.0331  141.8131  168.2499 S.O2    1  UNL1        0.0105
     18 O         140.0738  141.7046  169.3979 O.2     1  UNL1       -0.1686
     19 O         141.9924  141.9215  167.1018 O.2     1  UNL1       -0.1686
     20 C         140.8293  138.8140  158.8998 C.ar    1  UNL1        0.0541
     21 C         142.2906  138.9684  158.5987 C.ar    1  UNL1        0.0180
     22 C         142.8806  138.3089  157.3874 C.ar    1  UNL1        0.0382
     23 C         142.0092  137.4951  156.4773 C.ar    1  UNL1        0.1385
     24 C         140.5479  137.3407  156.7784 C.ar    1  UNL1        0.0382
     25 C         139.9579  138.0001  157.9896 C.ar    1  UNL1        0.0180
     26 O         142.5992  136.8357  155.2661 O.3     1  UNL1       -0.4791
     27 C         142.9745  135.3841  155.3104 C.3     1  UNL1        0.1687
     28 C         143.7248  134.8390  156.4892 C.3     1  UNL1        0.0609
     29 C         144.1001  133.3874  156.5335 C.3     1  UNL1        0.0758
     30 N         143.7250  132.4808  155.3989 N.3     1  UNL1       -0.2737
     31 C         142.9746  133.0259  154.2199 C.3     1  UNL1        0.0758
     32 C         142.5993  134.4775  154.1757 C.3     1  UNL1        0.0609
     33 C         144.1003  131.0292  155.4431 C.3     1  UNL1        0.0575
     34 C         144.1695  130.1002  154.2674 C.3     1  UNL1        0.0160
     35 C         144.5842  128.7485  154.7686 C.3     1  UNL1        0.0014
     36 C         144.7713  128.8422  156.2539 C.3     1  UNL1        0.0014
     37 C         144.4722  130.2517  156.6708 C.3     1  UNL1        0.0160
@<TRIPOS>BOND
     1    16    17    1
     2    17    18    2
     3    17    19    2
     4    17    10    1
     5    10    11   ar
     6    11    12   ar
     7    12    13   ar
     8    13    14   ar
     9    14     1    1
    10     1     2    2
    11     1     3   am
    12     3     4    1
    13     4     5    1
    14     5     6    1
    15     6    20    1
    16    20    21   ar
    17    21    22   ar
    18    22    23   ar
    19    23    26    1
    20    26    27    1
    21    27    28    1
    22    28    29    1
    23    29    30    1
    24    30    33    1
    25    33    34    1
    26    34    35    1
    27    35    36    1
    28    36    37    1
    29    30    31    1
    30    31    32    1
    31    23    24   ar
    32    24    25   ar
    33     6     7   am
    34     7     8    2
    35     7     9    1
    36    14    15   ar
    37    15    10   ar
    38     9     3    1
    39    25    20   ar
    40    32    27    1
    41    37    33    1
@<TRIPOS>MOLECULE
*****
 37 41 0 0 0
SMALL
GASTEIGER

@<TRIPOS>ATOM
      1 C         140.5601  142.9021  164.7829 C.2     1  UNL1        0.2495
      2 O         139.8679  144.2309  164.7118 O.2     1  UNL1       -0.2699
      3 N         140.7644  142.0951  163.5352 N.am    1  UNL1       -0.2660
      4 C         141.4566  140.7662  163.6063 C.3     1  UNL1        0.1160
      5 C         141.6608  139.9592  162.3584 C.3     1  UNL1        0.1197
      6 N         141.1728  140.4810  161.0395 N.am    1  UNL1       -0.2555
      7 C         140.4806  141.8098  160.9684 C.2     1  UNL1        0.2497
      8 O         139.9926  142.3316  159.6495 O.2     1  UNL1       -0.2727
      9 C         140.2763  142.6168  162.2162 C.3     1  UNL1        0.1799
     10 C         140.5694  141.2399  168.3867 C.ar    1  UNL1        0.1059
     11 C         142.0240  141.3368  168.7398 C.ar    1  UNL1        0.0183
     12 C         142.9906  141.9554  167.7740 C.ar    1  UNL1        0.0015
     13 C         142.5027  142.4772  166.4550 C.ar    1  UNL1        0.0046
     14 C         141.0481  142.3803  166.1019 C.ar    1  UNL1        0.0549
     15 C         140.0815  141.7616  167.0678 C.ar    1  UNL1        0.0229
     16 C         138.6361  140.0025  170.3184 C.3     1  UNL1        0.1816
     17 S         139.6027  140.6212  169.3525 S.O2    1  UNL1        0.0105
     18 O         139.2230  139.6019  168.3196 O.2     1  UNL1       -0.1686
     19 O         139.9825  141.6404  170.3854 O.2     1  UNL1       -0.1686
     20 C         141.3771  139.6740  159.7918 C.ar    1  UNL1        0.0541
     21 C         140.2430  138.8749  159.2214 C.ar    1  UNL1        0.0180
     22 C         140.4473  138.0679  157.9735 C.ar    1  UNL1        0.0382
     23 C         141.7857  138.0599  157.2962 C.ar    1  UNL1        0.1385
     24 C         142.9197  138.8590  157.8666 C.ar    1  UNL1        0.0382
     25 C         142.7155  139.6660  159.1144 C.ar    1  UNL1        0.0180
     26 O         141.9899  137.2529  156.0484 O.3     1  UNL1       -0.4791
     27 C         142.1493  135.7640  156.1359 C.3     1  UNL1        0.1687
     28 C         141.2933  134.8672  155.2915 C.3     1  UNL1        0.0609
     29 C         141.4527  133.3782  155.3790 C.3     1  UNL1        0.0758
     30 N         142.4680  132.7861  156.3108 N.3     1  UNL1       -0.2737
     31 C         143.3240  133.6829  157.1553 C.3     1  UNL1        0.0758
     32 C         143.1646  135.1718  157.0679 C.3     1  UNL1        0.0609
     33 C         142.6273  131.2971  156.3983 C.3     1  UNL1        0.0575
     34 C         142.0964  130.2944  155.4170 C.3     1  UNL1        0.0160
     35 C         142.4866  128.9271  155.8947 C.3     1  UNL1        0.0014
     36 C         143.2585  129.0847  157.1711 C.3     1  UNL1        0.0014
     37 C         143.3455  130.5495  157.4824 C.3     1  UNL1        0.0160
@<TRIPOS>BOND
     1    16    17    1
     2    17    18    2
     3    17    19    2
     4    17    10    1
     5    10    11   ar
     6    11    12   ar
     7    12    13   ar
     8    13    14   ar
     9    14     1    1
    10     1     2    2
    11     1     3   am
    12     3     4    1
    13     4     5    1
    14     5     6    1
    15     6    20    1
    16    20    21   ar
    17    21    22   ar
    18    22    23   ar
    19    23    26    1
    20    26    27    1
    21    27    28    1
    22    28    29    1
    23    29    30    1
    24    30    33    1
    25    33    34    1
    26    34    35    1
    27    35    36    1
    28    36    37    1
    29    30    31    1
    30    31    32    1
    31    23    24   ar
    32    24    25   ar
    33     6     7   am
    34     7     8    2
    35     7     9    1
    36    14    15   ar
    37    15    10   ar
    38     9     3    1
    39    25    20   ar
    40    32    27    1
    41    37    33    1
@<TRIPOS>MOLECULE
*****
 37 41 0 0 0
SMALL
GASTEIGER

@<TRIPOS>ATOM
      1 C         140.6036  137.9598  163.6387 C.2     1  UNL1        0.2495
      2 O         141.0989  136.5439  163.6286 O.2     1  UNL1       -0.2699
      3 N         140.5687  138.7513  162.3651 N.am    1  UNL1       -0.2660
      4 C         140.0734  140.1671  162.3752 C.3     1  UNL1        0.1160
      5 C         140.0385  140.9586  161.1015 C.3     1  UNL1        0.1197
      6 N         140.4990  140.3343  159.8177 N.am    1  UNL1       -0.2555
      7 C         140.9943  138.9185  159.8075 C.2     1  UNL1        0.2497
      8 O         141.4547  138.2942  158.5237 O.2     1  UNL1       -0.2727
      9 C         141.0292  138.1270  161.0812 C.3     1  UNL1        0.1799
     10 C         140.6749  139.8687  167.1174 C.ar    1  UNL1        0.1059
     11 C         139.2224  139.8327  167.4903 C.ar    1  UNL1        0.0183
     12 C         138.2304  139.1724  166.5794 C.ar    1  UNL1        0.0015
     13 C         138.6907  138.5481  165.2955 C.ar    1  UNL1        0.0046
     14 C         140.1432  138.5841  164.9226 C.ar    1  UNL1        0.0549
     15 C         141.1352  139.2444  165.8336 C.ar    1  UNL1        0.0229
     16 C         142.6590  141.1892  168.9393 C.3     1  UNL1        0.1816
     17 S         141.6669  140.5289  168.0284 S.O2    1  UNL1        0.0105
     18 O         142.4600  140.9800  166.8377 O.2     1  UNL1       -0.1686
     19 O         140.8738  140.0779  169.2190 O.2     1  UNL1       -0.1686
     20 C         140.4641  141.1258  158.5440 C.ar    1  UNL1        0.0541
     21 C         139.3249  140.9518  157.5838 C.ar    1  UNL1        0.0180
     22 C         139.2900  141.7434  156.3101 C.ar    1  UNL1        0.0382
     23 C         140.3943  142.7089  155.9967 C.ar    1  UNL1        0.1385
     24 C         141.5335  142.8829  156.9569 C.ar    1  UNL1        0.0382
     25 C         141.5684  142.0914  158.2305 C.ar    1  UNL1        0.0180
     26 O         140.3594  143.5004  154.7230 O.3     1  UNL1       -0.4791
     27 C         140.0932  144.9760  154.7640 C.3     1  UNL1        0.1687
     28 C         140.8044  145.8932  153.8138 C.3     1  UNL1        0.0609
     29 C         140.5381  147.3688  153.8549 C.3     1  UNL1        0.0758
     30 N         139.5606  147.9273  154.8461 N.3     1  UNL1       -0.2737
     31 C         138.8493  147.0101  155.7963 C.3     1  UNL1        0.0758
     32 C         139.1156  145.5345  155.7553 C.3     1  UNL1        0.0609
     33 C         139.2943  149.4029  154.8871 C.3     1  UNL1        0.0575
     34 C         139.7994  150.4176  153.9046 C.3     1  UNL1        0.0160
     35 C         139.2934  151.7647  154.3281 C.3     1  UNL1        0.0014
     36 C         138.4757  151.5825  155.5723 C.3     1  UNL1        0.0014
     37 C         138.4762  150.1229  155.9178 C.3     1  UNL1        0.0160
@<TRIPOS>BOND
     1    16    17    1
     2    17    18    2
     3    17    19    2
     4    17    10    1
     5    10    11   ar
     6    11    12   ar
     7    12    13   ar
     8    13    14   ar
     9    14     1    1
    10     1     2    2
    11     1     3   am
    12     3     4    1
    13     4     5    1
    14     5     6    1
    15     6    20    1
    16    20    21   ar
    17    21    22   ar
    18    22    23   ar
    19    23    26    1
    20    26    27    1
    21    27    28    1
    22    28    29    1
    23    29    30    1
    24    30    33    1
    25    33    34    1
    26    34    35    1
    27    35    36    1
    28    36    37    1
    29    30    31    1
    30    31    32    1
    31    23    24   ar
    32    24    25   ar
    33     6     7   am
    34     7     8    2
    35     7     9    1
    36    14    15   ar
    37    15    10   ar
    38     9     3    1
    39    25    20   ar
    40    32    27    1
    41    37    33    1
@<TRIPOS>MOLECULE
*****
 37 41 0 0 0
SMALL
GASTEIGER

@<TRIPOS>ATOM
      1 C         144.4133  140.4021  154.3668 C.2     1  UNL1        0.2495
      2 O         143.9715  139.7151  153.1087 O.2     1  UNL1       -0.2699
      3 N         143.8645  139.9650  155.6925 N.am    1  UNL1       -0.2660
      4 C         144.3064  140.6521  156.9506 C.3     1  UNL1        0.1160
      5 C         143.7575  140.2149  158.2764 C.3     1  UNL1        0.1197
      6 N         142.7668  139.0907  158.3441 N.am    1  UNL1       -0.2555
      7 C         142.3249  138.4036  157.0860 C.2     1  UNL1        0.2497
      8 O         141.3342  137.2794  157.1537 O.2     1  UNL1       -0.2727
      9 C         142.8737  138.8407  155.7603 C.3     1  UNL1        0.1799
     10 C         147.8582  142.3723  154.4082 C.ar    1  UNL1        0.1059
     11 C         147.3856  143.7747  154.1636 C.ar    1  UNL1        0.0183
     12 C         145.9223  144.0529  153.9866 C.ar    1  UNL1        0.0015
     13 C         144.9315  142.9288  154.0544 C.ar    1  UNL1        0.0046
     14 C         145.4041  141.5264  154.2990 C.ar    1  UNL1        0.0549
     15 C         146.8674  141.2481  154.4760 C.ar    1  UNL1        0.0229
     16 C         150.7848  141.8158  154.7621 C.3     1  UNL1        0.1816
     17 S         149.3215  142.0941  154.5852 S.O2    1  UNL1        0.0105
     18 O         149.0807  141.7421  156.0232 O.2     1  UNL1       -0.1686
     19 O         149.5623  142.4461  153.1471 O.2     1  UNL1       -0.1686
     20 C         142.2179  138.6536  159.6698 C.ar    1  UNL1        0.0541
     21 C         143.1337  138.0718  160.7057 C.ar    1  UNL1        0.0180
     22 C         142.5847  137.6347  162.0315 C.ar    1  UNL1        0.0382
     23 C         141.1202  137.7793  162.3213 C.ar    1  UNL1        0.1385
     24 C         140.2044  138.3610  161.2855 C.ar    1  UNL1        0.0382
     25 C         140.7533  138.7981  159.9597 C.ar    1  UNL1        0.0180
     26 O         140.5713  137.3421  163.6471 O.3     1  UNL1       -0.4791
     27 C         140.4773  138.3212  164.7796 C.3     1  UNL1        0.1687
     28 C         139.1591  138.5659  165.4521 C.3     1  UNL1        0.0609
     29 C         139.0651  139.5449  166.5846 C.3     1  UNL1        0.0758
     30 N         140.2894  140.2794  167.0446 N.3     1  UNL1       -0.2737
     31 C         141.6077  140.0348  166.3721 C.3     1  UNL1        0.0758
     32 C         141.7017  139.0557  165.2396 C.3     1  UNL1        0.0609
     33 C         140.1954  141.2585  168.1771 C.3     1  UNL1        0.0575
     34 C         140.7051  142.6693  168.1675 C.3     1  UNL1        0.0160
     35 C         140.3999  143.2814  169.5026 C.3     1  UNL1        0.0014
     36 C         139.7017  142.2489  170.3372 C.3     1  UNL1        0.0014
     37 C         139.5753  140.9988  169.5180 C.3     1  UNL1        0.0160
@<TRIPOS>BOND
     1    16    17    1
     2    17    18    2
     3    17    19    2
     4    17    10    1
     5    10    11   ar
     6    11    12   ar
     7    12    13   ar
     8    13    14   ar
     9    14     1    1
    10     1     2    2
    11     1     3   am
    12     3     4    1
    13     4     5    1
    14     5     6    1
    15     6    20    1
    16    20    21   ar
    17    21    22   ar
    18    22    23   ar
    19    23    26    1
    20    26    27    1
    21    27    28    1
    22    28    29    1
    23    29    30    1
    24    30    33    1
    25    33    34    1
    26    34    35    1
    27    35    36    1
    28    36    37    1
    29    30    31    1
    30    31    32    1
    31    23    24   ar
    32    24    25   ar
    33     6     7   am
    34     7     8    2
    35     7     9    1
    36    14    15   ar
    37    15    10   ar
    38     9     3    1
    39    25    20   ar
    40    32    27    1
    41    37    33    1
