@<TRIPOS>MOLECULE
*****
 34 37 0 0 0
SMALL
GASTEIGER

@<TRIPOS>ATOM
      1 C         141.8506  143.4386  161.5972 C.2     1  UNL1        0.2248
      2 O         143.0489  143.9429  160.8489 O.2     1  UNL1       -0.2749
      3 N         141.9583  143.1213  163.0593 N.am    1  UNL1       -0.2760
      4 C         143.2642  143.3083  163.7732 C.3     1  UNL1        0.1149
      5 C         143.3718  142.9910  165.2352 C.3     1  UNL1        0.1137
      6 N         142.1735  142.4867  165.9834 N.pl3   1  UNL1       -0.2897
      7 C         140.8676  142.2997  165.2696 C.3     1  UNL1        0.1137
      8 C         140.7600  142.6170  163.8075 C.3     1  UNL1        0.1149
      9 C         142.2812  142.1694  167.4456 C.ar    1  UNL1        0.1317
     10 C         141.1818  141.4145  168.1322 C.ar    1  UNL1        0.0382
     11 C         141.2895  141.0972  169.5943 C.ar    1  UNL1        0.0757
     12 C         142.4966  141.5349  170.3698 C.ar    1  UNL1        0.0246
     13 C         143.5960  142.2899  169.6832 C.ar    1  UNL1        0.1002
     14 N         143.4883  142.6071  168.2211 N.ar    1  UNL1       -0.2292
     15 C         140.1902  140.3422  170.2809 C.3     1  UNL1        0.4187
     16 F         139.0908  139.5873  170.9674 F       1  UNL1       -0.1659
     17 F         139.2991  141.5442  170.1758 F       1  UNL1       -0.1659
     18 F         141.0813  139.1402  170.3860 F       1  UNL1       -0.1659
     19 C         140.5447  143.2516  160.8833 C.3     1  UNL1        0.0704
     20 C         139.2476  143.3767  160.1405 C.3     1  UNL1        0.0100
     21 C         138.6769  142.0001  159.9691 C.3     1  UNL1        0.0162
     22 C         139.6213  141.0242  160.6061 C.3     1  UNL1        0.0544
     23 C         140.7757  141.7977  161.1711 C.3     1  UNL1        0.0243
     24 C         140.9110  145.3659  159.4186 C.3     1  UNL1        0.0005
     25 C         140.5867  144.7446  160.7448 C.3     1  UNL1        0.0082
     26 C         140.3044  145.6162  161.9325 C.3     1  UNL1        0.0005
     27 N         139.4428  139.5362  160.6673 N.3     1  UNL1       -0.2995
     28 H         140.0930  139.1336  159.9923 H       1  UNL1        0.1232
     29 C         139.6557  138.8078  161.9612 C.3     1  UNL1        0.0590
     30 C         140.8596  137.9309  162.1388 C.3     1  UNL1        0.0478
     31 C         141.0726  137.2025  163.4327 C.3     1  UNL1        0.1435
     32 O         140.0816  137.3509  164.5489 O.3     1  UNL1       -0.3537
     33 C         138.8777  138.2279  164.3713 C.3     1  UNL1        0.1435
     34 C         138.6648  138.9563  163.0773 C.3     1  UNL1        0.0478
@<TRIPOS>BOND
     1    24    25    1
     2    25    26    1
     3    19    25    1
     4    19     1    1
     5     1     2    2
     6     1     3   am
     7     3     4    1
     8     4     5    1
     9     5     6    1
    10     6     9    1
    11     9    10   ar
    12    10    11   ar
    13    11    15    1
    14    15    16    1
    15    15    17    1
    16    15    18    1
    17    11    12   ar
    18    12    13   ar
    19    13    14   ar
    20     6     7    1
    21     7     8    1
    22    19    20    1
    23    20    21    1
    24    21    22    1
    25    22    27    1
    26    27    29    1
    27    29    30    1
    28    30    31    1
    29    31    32    1
    30    32    33    1
    31    33    34    1
    32    22    23    1
    33    23    19    1
    34     8     3    1
    35    34    29    1
    36    14     9   ar
    37    27    28    1
@<TRIPOS>MOLECULE
*****
 34 37 0 0 0
SMALL
GASTEIGER

@<TRIPOS>ATOM
      1 C         142.2589  140.3003  161.3990 C.2     1  UNL1        0.2248
      2 O         143.3830  140.8403  160.5654 O.2     1  UNL1       -0.2749
      3 N         142.3614  140.3135  162.8955 N.am    1  UNL1       -0.2760
      4 C         143.5880  140.8666  163.5583 C.3     1  UNL1        0.1149
      5 C         143.6905  140.8798  165.0547 C.3     1  UNL1        0.1137
      6 N         142.5664  140.3398  165.8883 N.pl3   1  UNL1       -0.2897
      7 C         141.3398  139.7866  165.2254 C.3     1  UNL1        0.1137
      8 C         141.2373  139.7735  163.7290 C.3     1  UNL1        0.1149
      9 C         142.6689  140.3530  167.3848 C.ar    1  UNL1        0.1317
     10 C         142.9602  141.6360  168.1053 C.ar    1  UNL1        0.0382
     11 C         143.0628  141.6492  169.6017 C.ar    1  UNL1        0.0757
     12 C         142.8740  140.3794  170.3776 C.ar    1  UNL1        0.0246
     13 C         142.5827  139.0964  169.6571 C.ar    1  UNL1        0.1002
     14 N         142.4802  139.0832  168.1607 N.ar    1  UNL1       -0.2292
     15 C         143.3540  142.9321  170.3222 C.3     1  UNL1        0.4187
     16 F         143.6453  144.2151  171.0428 F       1  UNL1       -0.1659
     17 F         141.8845  143.2226  170.3991 F       1  UNL1       -0.1659
     18 F         144.8236  142.6416  170.2454 F       1  UNL1       -0.1659
     19 C         141.0323  139.7471  160.7361 C.3     1  UNL1        0.0704
     20 C         139.9987  138.9641  159.9821 C.3     1  UNL1        0.0100
     21 C         138.6933  139.6949  160.0906 C.3     1  UNL1        0.0162
     22 C         138.9200  140.9296  160.9117 C.3     1  UNL1        0.0544
     23 C         140.3657  140.9618  161.3106 C.3     1  UNL1        0.0243
     24 C         142.3750  138.5466  158.8636 C.3     1  UNL1        0.0005
     25 C         141.9553  138.6480  160.3002 C.3     1  UNL1        0.0082
     26 C         142.4586  137.6503  161.3008 C.3     1  UNL1        0.0005
     27 N         137.8834  141.9524  161.2708 N.3     1  UNL1       -0.2995
     28 H         137.0631  141.4394  161.5939 H       1  UNL1        0.1232
     29 C         138.1827  142.9904  162.3115 C.3     1  UNL1        0.0590
     30 C         137.5924  142.8673  163.6850 C.3     1  UNL1        0.0478
     31 C         137.8917  143.9052  164.7257 C.3     1  UNL1        0.1435
     32 O         138.7812  145.0662  164.3930 O.3     1  UNL1       -0.3537
     33 C         139.3715  145.1893  163.0196 C.3     1  UNL1        0.1435
     34 C         139.0722  144.1514  161.9788 C.3     1  UNL1        0.0478
@<TRIPOS>BOND
     1    24    25    1
     2    25    26    1
     3    19    25    1
     4    19     1    1
     5     1     2    2
     6     1     3   am
     7     3     4    1
     8     4     5    1
     9     5     6    1
    10     6     9    1
    11     9    10   ar
    12    10    11   ar
    13    11    15    1
    14    15    16    1
    15    15    17    1
    16    15    18    1
    17    11    12   ar
    18    12    13   ar
    19    13    14   ar
    20     6     7    1
    21     7     8    1
    22    19    20    1
    23    20    21    1
    24    21    22    1
    25    22    27    1
    26    27    29    1
    27    29    30    1
    28    30    31    1
    29    31    32    1
    30    32    33    1
    31    33    34    1
    32    22    23    1
    33    23    19    1
    34     8     3    1
    35    34    29    1
    36    14     9   ar
    37    27    28    1
@<TRIPOS>MOLECULE
*****
 34 37 0 0 0
SMALL
GASTEIGER

@<TRIPOS>ATOM
      1 C         141.8405  143.3389  160.9187 C.2     1  UNL1        0.2248
      2 O         142.9782  144.0025  160.2009 O.2     1  UNL1       -0.2749
      3 N         142.0160  142.8732  162.3338 N.am    1  UNL1       -0.2760
      4 C         143.3292  143.0712  163.0310 C.3     1  UNL1        0.1149
      5 C         143.5046  142.6055  164.4461 C.3     1  UNL1        0.1137
      6 N         142.3669  141.9419  165.1638 N.pl3   1  UNL1       -0.2897
      7 C         141.0537  141.7439  164.4665 C.3     1  UNL1        0.1137
      8 C         140.8783  142.2096  163.0515 C.3     1  UNL1        0.1149
      9 C         142.5424  141.4762  166.5789 C.ar    1  UNL1        0.1317
     10 C         142.8735  142.4641  167.6579 C.ar    1  UNL1        0.0382
     11 C         143.0491  141.9985  169.0730 C.ar    1  UNL1        0.0757
     12 C         142.8934  140.5449  169.4090 C.ar    1  UNL1        0.0246
     13 C         142.5623  139.5570  168.3299 C.ar    1  UNL1        0.1002
     14 N         142.3868  140.0226  166.9149 N.ar    1  UNL1       -0.2292
     15 C         143.3802  142.9864  170.1521 C.3     1  UNL1        0.4187
     16 F         143.7113  143.9742  171.2311 F       1  UNL1       -0.1659
     17 F         141.9370  143.3881  170.2272 F       1  UNL1       -0.1659
     18 F         144.8234  142.5846  170.0770 F       1  UNL1       -0.1659
     19 C         140.5273  143.1409  160.2214 C.3     1  UNL1        0.0704
     20 C         139.2111  143.2563  159.5112 C.3     1  UNL1        0.0100
     21 C         138.6864  141.8703  159.2795 C.3     1  UNL1        0.0162
     22 C         139.6783  140.8983  159.8464 C.3     1  UNL1        0.0544
     23 C         140.8161  141.6836  160.4286 C.3     1  UNL1        0.0243
     24 C         140.7041  145.3382  158.8464 C.3     1  UNL1        0.0005
     25 C         140.5131  144.6396  160.1599 C.3     1  UNL1        0.0082
     26 C         140.3079  145.4395  161.4121 C.3     1  UNL1        0.0005
     27 N         139.5542  139.4035  159.8336 N.3     1  UNL1       -0.2995
     28 H         140.2405  139.0569  159.1633 H       1  UNL1        0.1232
     29 C         139.7529  138.6235  161.0994 C.3     1  UNL1        0.0590
     30 C         138.5811  138.3213  161.9857 C.3     1  UNL1        0.0478
     31 C         138.7796  137.5412  163.2514 C.3     1  UNL1        0.1435
     32 O         140.1499  137.0634  163.6308 O.3     1  UNL1       -0.3537
     33 C         141.3217  137.3656  162.7445 C.3     1  UNL1        0.1435
     34 C         141.1231  138.1457  161.4787 C.3     1  UNL1        0.0478
@<TRIPOS>BOND
     1    24    25    1
     2    25    26    1
     3    19    25    1
     4    19     1    1
     5     1     2    2
     6     1     3   am
     7     3     4    1
     8     4     5    1
     9     5     6    1
    10     6     9    1
    11     9    10   ar
    12    10    11   ar
    13    11    15    1
    14    15    16    1
    15    15    17    1
    16    15    18    1
    17    11    12   ar
    18    12    13   ar
    19    13    14   ar
    20     6     7    1
    21     7     8    1
    22    19    20    1
    23    20    21    1
    24    21    22    1
    25    22    27    1
    26    27    29    1
    27    29    30    1
    28    30    31    1
    29    31    32    1
    30    32    33    1
    31    33    34    1
    32    22    23    1
    33    23    19    1
    34     8     3    1
    35    34    29    1
    36    14     9   ar
    37    27    28    1
@<TRIPOS>MOLECULE
*****
 34 37 0 0 0
SMALL
GASTEIGER

@<TRIPOS>ATOM
      1 C         139.6003  139.1165  163.0649 C.2     1  UNL1        0.2248
      2 O         138.1009  139.0836  163.0895 O.2     1  UNL1       -0.2749
      3 N         140.3356  138.8423  161.7865 N.am    1  UNL1       -0.2760
      4 C         139.5714  138.5353  160.5328 C.3     1  UNL1        0.1149
      5 C         140.3067  138.2611  159.2545 C.3     1  UNL1        0.1137
      6 N         141.8061  138.2940  159.2298 N.pl3   1  UNL1       -0.2897
      7 C         142.5703  138.6010  160.4835 C.3     1  UNL1        0.1137
      8 C         141.8350  138.8752  161.7618 C.3     1  UNL1        0.1149
      9 C         142.5414  138.0198  157.9514 C.ar    1  UNL1        0.1317
     10 C         142.7526  136.6064  157.4960 C.ar    1  UNL1        0.0382
     11 C         143.4879  136.3322  156.2176 C.ar    1  UNL1        0.0757
     12 C         144.0119  137.4716  155.3946 C.ar    1  UNL1        0.0246
     13 C         143.8006  138.8851  155.8500 C.ar    1  UNL1        0.1002
     14 N         143.0654  139.1592  157.1284 N.ar    1  UNL1       -0.2292
     15 C         143.6992  134.9187  155.7622 C.3     1  UNL1        0.4187
     16 F         143.9104  133.5053  155.3068 F       1  UNL1       -0.1659
     17 F         143.3601  135.3206  154.3574 F       1  UNL1       -0.1659
     18 F         144.0382  134.5168  157.1670 F       1  UNL1       -0.1659
     19 C         140.3645  139.4235  164.3185 C.3     1  UNL1        0.0704
     20 C         141.0868  139.4257  165.6332 C.3     1  UNL1        0.0100
     21 C         141.5738  140.8206  165.8921 C.3     1  UNL1        0.0162
     22 C         141.1525  141.6805  164.7375 C.3     1  UNL1        0.0544
     23 C         140.4051  140.8170  163.7649 C.3     1  UNL1        0.0243
     24 C         138.8464  137.4807  165.1376 C.3     1  UNL1        0.0005
     25 C         140.1641  137.9658  164.6101 C.3     1  UNL1        0.0082
     26 C         141.2814  136.9933  164.3740 C.3     1  UNL1        0.0005
     27 N         141.4299  143.1464  164.5825 N.3     1  UNL1       -0.2995
     28 H         142.3690  143.2288  164.1932 H       1  UNL1        0.1232
     29 C         140.5320  143.9938  163.7305 C.3     1  UNL1        0.0590
     30 C         141.1238  144.9617  162.7492 C.3     1  UNL1        0.0478
     31 C         140.2260  145.8091  161.8972 C.3     1  UNL1        0.1435
     32 O         138.7364  145.6884  162.0264 O.3     1  UNL1       -0.3537
     33 C         138.1446  144.7204  163.0076 C.3     1  UNL1        0.1435
     34 C         139.0425  143.8731  163.8597 C.3     1  UNL1        0.0478
@<TRIPOS>BOND
     1    24    25    1
     2    25    26    1
     3    19    25    1
     4    19     1    1
     5     1     2    2
     6     1     3   am
     7     3     4    1
     8     4     5    1
     9     5     6    1
    10     6     9    1
    11     9    10   ar
    12    10    11   ar
    13    11    15    1
    14    15    16    1
    15    15    17    1
    16    15    18    1
    17    11    12   ar
    18    12    13   ar
    19    13    14   ar
    20     6     7    1
    21     7     8    1
    22    19    20    1
    23    20    21    1
    24    21    22    1
    25    22    27    1
    26    27    29    1
    27    29    30    1
    28    30    31    1
    29    31    32    1
    30    32    33    1
    31    33    34    1
    32    22    23    1
    33    23    19    1
    34     8     3    1
    35    34    29    1
    36    14     9   ar
    37    27    28    1
@<TRIPOS>MOLECULE
*****
 34 37 0 0 0
SMALL
GASTEIGER

@<TRIPOS>ATOM
      1 C         142.9328  142.7603  162.5036 C.2     1  UNL1        0.2248
      2 O         144.0494  141.7681  162.6407 O.2     1  UNL1       -0.2749
      3 N         142.5991  143.3328  161.1579 N.am    1  UNL1       -0.2760
      4 C         143.3821  142.9130  159.9492 C.3     1  UNL1        0.1149
      5 C         143.0484  143.4855  158.6035 C.3     1  UNL1        0.1137
      6 N         141.9318  144.4777  158.4665 N.pl3   1  UNL1       -0.2897
      7 C         141.1489  144.8974  159.6751 C.3     1  UNL1        0.1137
      8 C         141.4826  144.3250  161.0208 C.3     1  UNL1        0.1149
      9 C         141.5982  145.0501  157.1207 C.ar    1  UNL1        0.1317
     10 C         140.5995  146.1634  157.0059 C.ar    1  UNL1        0.0382
     11 C         140.2658  146.7358  155.6601 C.ar    1  UNL1        0.0757
     12 C         140.9309  146.1950  154.4292 C.ar    1  UNL1        0.0246
     13 C         141.9297  145.0816  154.5441 C.ar    1  UNL1        0.1002
     14 N         142.2632  144.5092  155.8898 N.ar    1  UNL1       -0.2292
     15 C         139.2671  147.8491  155.5453 C.3     1  UNL1        0.4187
     16 F         138.2685  148.9623  155.4304 F       1  UNL1       -0.1659
     17 F         139.5610  147.9615  154.0787 F       1  UNL1       -0.1659
     18 F         138.9733  147.7367  157.0118 F       1  UNL1       -0.1659
     19 C         142.1499  143.1801  163.7123 C.3     1  UNL1        0.0704
     20 C         141.6292  143.7543  164.9964 C.3     1  UNL1        0.0100
     21 C         140.2167  143.2826  165.1761 C.3     1  UNL1        0.0162
     22 C         139.8644  142.4167  164.0030 C.3     1  UNL1        0.0544
     23 C         141.0592  142.3534  163.0983 C.3     1  UNL1        0.0243
     24 C         144.3064  143.3854  165.1466 C.3     1  UNL1        0.0005
     25 C         143.4042  143.9190  164.0735 C.3     1  UNL1        0.0082
     26 C         143.7564  145.1916  163.3618 C.3     1  UNL1        0.0005
     27 N         138.5485  141.7340  163.7747 N.3     1  UNL1       -0.2995
     28 H         138.0947  142.2205  163.0015 H       1  UNL1        0.1232
     29 C         138.5094  140.2705  163.4482 C.3     1  UNL1        0.0590
     30 C         138.9423  139.2621  164.4708 C.3     1  UNL1        0.0478
     31 C         138.9032  137.7986  164.1443 C.3     1  UNL1        0.1435
     32 O         138.4313  137.3435  162.7952 O.3     1  UNL1       -0.3537
     33 C         137.9984  138.3518  161.7726 C.3     1  UNL1        0.1435
     34 C         138.0375  139.8154  162.0991 C.3     1  UNL1        0.0478
@<TRIPOS>BOND
     1    24    25    1
     2    25    26    1
     3    19    25    1
     4    19     1    1
     5     1     2    2
     6     1     3   am
     7     3     4    1
     8     4     5    1
     9     5     6    1
    10     6     9    1
    11     9    10   ar
    12    10    11   ar
    13    11    15    1
    14    15    16    1
    15    15    17    1
    16    15    18    1
    17    11    12   ar
    18    12    13   ar
    19    13    14   ar
    20     6     7    1
    21     7     8    1
    22    19    20    1
    23    20    21    1
    24    21    22    1
    25    22    27    1
    26    27    29    1
    27    29    30    1
    28    30    31    1
    29    31    32    1
    30    32    33    1
    31    33    34    1
    32    22    23    1
    33    23    19    1
    34     8     3    1
    35    34    29    1
    36    14     9   ar
    37    27    28    1
@<TRIPOS>MOLECULE
*****
 34 37 0 0 0
SMALL
GASTEIGER

@<TRIPOS>ATOM
      1 C         140.7756  139.0932  163.9637 C.2     1  UNL1        0.2248
      2 O         141.5355  138.5656  165.1445 O.2     1  UNL1       -0.2749
      3 N         141.2775  138.8371  162.5735 N.am    1  UNL1       -0.2760
      4 C         142.5391  138.0533  162.3641 C.3     1  UNL1        0.1149
      5 C         143.0409  137.7972  160.9739 C.3     1  UNL1        0.1137
      6 N         142.2810  138.3249  159.7932 N.pl3   1  UNL1       -0.2897
      7 C         141.0194  139.1087  160.0026 C.3     1  UNL1        0.1137
      8 C         140.5176  139.3648  161.3928 C.3     1  UNL1        0.1149
      9 C         142.7829  138.0688  158.4030 C.ar    1  UNL1        0.1317
     10 C         142.7817  136.6744  157.8502 C.ar    1  UNL1        0.0382
     11 C         143.2835  136.4183  156.4600 C.ar    1  UNL1        0.0757
     12 C         143.7865  137.5566  155.6226 C.ar    1  UNL1        0.0246
     13 C         143.7877  138.9510  156.1755 C.ar    1  UNL1        0.1002
     14 N         143.2859  139.2071  157.5656 N.ar    1  UNL1       -0.2292
     15 C         143.2823  135.0239  155.9072 C.3     1  UNL1        0.4187
     16 F         143.2811  133.6295  155.3544 F       1  UNL1       -0.1659
     17 F         143.1275  134.4742  157.2942 F       1  UNL1       -0.1659
     18 F         143.4371  135.5736  154.5202 F       1  UNL1       -0.1659
     19 C         139.5140  139.8770  164.1731 C.3     1  UNL1        0.0704
     20 C         138.1298  140.3814  164.4554 C.3     1  UNL1        0.0100
     21 C         138.1239  141.8655  164.2376 C.3     1  UNL1        0.0162
     22 C         139.5044  142.2784  163.8207 C.3     1  UNL1        0.0544
     23 C         140.3635  141.0493  163.7808 C.3     1  UNL1        0.0243
     24 C         138.7887  137.4846  163.4657 C.3     1  UNL1        0.0005
     25 C         138.9282  138.5408  164.5217 C.3     1  UNL1        0.0082
     26 C         138.4818  138.2609  165.9261 C.3     1  UNL1        0.0005
     27 N         139.9479  143.6748  163.4999 N.3     1  UNL1       -0.2995
     28 H         139.7637  144.2400  164.3288 H       1  UNL1        0.1232
     29 C         141.3708  143.9377  163.1041 C.3     1  UNL1        0.0590
     30 C         141.8992  143.4026  161.8062 C.3     1  UNL1        0.0478
     31 C         143.3219  143.6654  161.4104 C.3     1  UNL1        0.1435
     32 O         144.2163  144.4632  162.3124 O.3     1  UNL1       -0.3537
     33 C         143.6879  144.9983  163.6103 C.3     1  UNL1        0.1435
     34 C         142.2650  144.7355  164.0061 C.3     1  UNL1        0.0478
@<TRIPOS>BOND
     1    24    25    1
     2    25    26    1
     3    19    25    1
     4    19     1    1
     5     1     2    2
     6     1     3   am
     7     3     4    1
     8     4     5    1
     9     5     6    1
    10     6     9    1
    11     9    10   ar
    12    10    11   ar
    13    11    15    1
    14    15    16    1
    15    15    17    1
    16    15    18    1
    17    11    12   ar
    18    12    13   ar
    19    13    14   ar
    20     6     7    1
    21     7     8    1
    22    19    20    1
    23    20    21    1
    24    21    22    1
    25    22    27    1
    26    27    29    1
    27    29    30    1
    28    30    31    1
    29    31    32    1
    30    32    33    1
    31    33    34    1
    32    22    23    1
    33    23    19    1
    34     8     3    1
    35    34    29    1
    36    14     9   ar
    37    27    28    1
@<TRIPOS>MOLECULE
*****
 34 37 0 0 0
SMALL
GASTEIGER

@<TRIPOS>ATOM
      1 C         139.3680  139.7810  164.5840 C.2     1  UNL1        0.2248
      2 O         138.1464  139.7202  165.4525 O.2     1  UNL1       -0.2749
      3 N         139.3055  140.4608  163.2483 N.am    1  UNL1       -0.2760
      4 C         138.0215  141.0798  162.7811 C.3     1  UNL1        0.1149
      5 C         137.9591  141.7595  161.4455 C.3     1  UNL1        0.1137
      6 N         139.1806  141.8203  160.5770 N.pl3   1  UNL1       -0.2897
      7 C         140.4646  141.2014  161.0442 C.3     1  UNL1        0.1137
      8 C         140.5270  140.5216  162.3799 C.3     1  UNL1        0.1149
      9 C         139.1181  142.5001  159.2413 C.ar    1  UNL1        0.1317
     10 C         138.0347  142.1424  158.2677 C.ar    1  UNL1        0.0382
     11 C         137.9722  142.8222  156.9319 C.ar    1  UNL1        0.0757
     12 C         138.9932  143.8597  156.5700 C.ar    1  UNL1        0.0246
     13 C         140.0767  144.2174  157.5437 C.ar    1  UNL1        0.1002
     14 N         140.1392  143.5377  158.8794 N.ar    1  UNL1       -0.2292
     15 C         136.8887  142.4644  155.9583 C.3     1  UNL1        0.4187
     16 F         135.8053  142.1067  154.9846 F       1  UNL1       -0.1659
     17 F         136.5862  143.9201  155.7601 F       1  UNL1       -0.1659
     18 F         137.1913  141.0087  156.1565 F       1  UNL1       -0.1659
     19 C         140.6519  139.1621  165.0512 C.3     1  UNL1        0.0704
     20 C         141.8151  138.2804  165.3971 C.3     1  UNL1        0.0100
     21 C         142.8433  139.1215  166.0937 C.3     1  UNL1        0.0162
     22 C         142.3156  140.5231  166.1785 C.3     1  UNL1        0.0544
     23 C         140.9612  140.5481  165.5341 C.3     1  UNL1        0.0243
     24 C         140.7173  137.2667  163.2755 C.3     1  UNL1        0.0005
     25 C         140.0742  137.9054  164.4707 C.3     1  UNL1        0.0082
     26 C         138.8533  137.2876  165.0853 C.3     1  UNL1        0.0005
     27 N         143.0187  141.6939  166.7985 N.3     1  UNL1       -0.2995
     28 H         142.9972  142.4478  166.1118 H       1  UNL1        0.1232
     29 C         142.5195  142.2705  168.0902 C.3     1  UNL1        0.0590
     30 C         143.4486  142.4054  169.2600 C.3     1  UNL1        0.0478
     31 C         142.9495  142.9820  170.5517 C.3     1  UNL1        0.1435
     32 O         141.5212  143.4237  170.6735 O.3     1  UNL1       -0.3537
     33 C         140.5920  143.2888  169.5037 C.3     1  UNL1        0.1435
     34 C         141.0912  142.7122  168.2121 C.3     1  UNL1        0.0478
@<TRIPOS>BOND
     1    24    25    1
     2    25    26    1
     3    19    25    1
     4    19     1    1
     5     1     2    2
     6     1     3   am
     7     3     4    1
     8     4     5    1
     9     5     6    1
    10     6     9    1
    11     9    10   ar
    12    10    11   ar
    13    11    15    1
    14    15    16    1
    15    15    17    1
    16    15    18    1
    17    11    12   ar
    18    12    13   ar
    19    13    14   ar
    20     6     7    1
    21     7     8    1
    22    19    20    1
    23    20    21    1
    24    21    22    1
    25    22    27    1
    26    27    29    1
    27    29    30    1
    28    30    31    1
    29    31    32    1
    30    32    33    1
    31    33    34    1
    32    22    23    1
    33    23    19    1
    34     8     3    1
    35    34    29    1
    36    14     9   ar
    37    27    28    1
@<TRIPOS>MOLECULE
*****
 34 37 0 0 0
SMALL
GASTEIGER

@<TRIPOS>ATOM
      1 C         143.6852  140.4367  163.2588 C.2     1  UNL1        0.2248
      2 O         144.4479  139.7186  164.3324 O.2     1  UNL1       -0.2749
      3 N         143.3064  139.7167  161.9985 N.am    1  UNL1       -0.2760
      4 C         143.6903  138.2788  161.8118 C.3     1  UNL1        0.1149
      5 C         143.3115  137.5589  160.5516 C.3     1  UNL1        0.1137
      6 N         142.5488  138.2770  159.4780 N.pl3   1  UNL1       -0.2897
      7 C         142.1649  139.7149  159.6646 C.3     1  UNL1        0.1137
      8 C         142.5437  140.4348  160.9249 C.3     1  UNL1        0.1149
      9 C         142.1700  137.5570  158.2177 C.ar    1  UNL1        0.1317
     10 C         142.9750  136.3785  157.7563 C.ar    1  UNL1        0.0382
     11 C         142.5962  135.6585  156.4960 C.ar    1  UNL1        0.0757
     12 C         141.4123  136.1172  155.6972 C.ar    1  UNL1        0.0246
     13 C         140.6073  137.2958  156.1586 C.ar    1  UNL1        0.1002
     14 N         140.9861  138.0157  157.4189 N.ar    1  UNL1       -0.2292
     15 C         143.4012  134.4800  156.0346 C.3     1  UNL1        0.4187
     16 F         144.2062  133.3014  155.5732 F       1  UNL1       -0.1659
     17 F         142.5747  133.5764  156.9008 F       1  UNL1       -0.1659
     18 F         144.2277  135.3836  155.1685 F       1  UNL1       -0.1659
     19 C         143.3013  141.8746  163.4454 C.3     1  UNL1        0.0704
     20 C         143.2059  143.3696  163.5231 C.3     1  UNL1        0.0100
     21 C         141.8473  143.7204  164.0532 C.3     1  UNL1        0.0162
     22 C         141.1029  142.4423  164.3031 C.3     1  UNL1        0.0544
     23 C         142.0016  141.3015  163.9274 C.3     1  UNL1        0.0243
     24 C         145.8803  141.7571  163.7368 C.3     1  UNL1        0.0005
     25 C         144.6812  142.1471  162.9243 C.3     1  UNL1        0.0082
     26 C         144.8621  142.8096  161.5908 C.3     1  UNL1        0.0005
     27 N         139.7054  142.3254  164.8351 N.3     1  UNL1       -0.2995
     28 H         139.0960  142.1745  164.0313 H       1  UNL1        0.1232
     29 C         139.3711  141.2610  165.8379 C.3     1  UNL1        0.0590
     30 C         139.9749  141.3073  167.2102 C.3     1  UNL1        0.0478
     31 C         139.6406  140.2430  168.2129 C.3     1  UNL1        0.1435
     32 O         138.7027  139.1323  167.8433 O.3     1  UNL1       -0.3537
     33 C         138.0989  139.0860  166.4709 C.3     1  UNL1        0.1435
     34 C         138.4332  140.1504  165.4682 C.3     1  UNL1        0.0478
@<TRIPOS>BOND
     1    24    25    1
     2    25    26    1
     3    19    25    1
     4    19     1    1
     5     1     2    2
     6     1     3   am
     7     3     4    1
     8     4     5    1
     9     5     6    1
    10     6     9    1
    11     9    10   ar
    12    10    11   ar
    13    11    15    1
    14    15    16    1
    15    15    17    1
    16    15    18    1
    17    11    12   ar
    18    12    13   ar
    19    13    14   ar
    20     6     7    1
    21     7     8    1
    22    19    20    1
    23    20    21    1
    24    21    22    1
    25    22    27    1
    26    27    29    1
    27    29    30    1
    28    30    31    1
    29    31    32    1
    30    32    33    1
    31    33    34    1
    32    22    23    1
    33    23    19    1
    34     8     3    1
    35    34    29    1
    36    14     9   ar
    37    27    28    1
@<TRIPOS>MOLECULE
*****
 34 37 0 0 0
SMALL
GASTEIGER

@<TRIPOS>ATOM
      1 C         142.1505  143.1191  163.2768 C.2     1  UNL1        0.2248
      2 O         141.3124  143.5705  164.4360 O.2     1  UNL1       -0.2749
      3 N         141.7946  143.5450  161.8832 N.am    1  UNL1       -0.2760
      4 C         140.6008  144.4223  161.6488 C.3     1  UNL1        0.1149
      5 C         140.2450  144.8481  160.2553 C.3     1  UNL1        0.1137
      6 N         141.0831  144.3967  159.0961 N.pl3   1  UNL1       -0.2897
      7 C         142.2770  143.5194  159.3304 C.3     1  UNL1        0.1137
      8 C         142.6327  143.0935  160.7239 C.3     1  UNL1        0.1149
      9 C         140.7272  144.8226  157.7025 C.ar    1  UNL1        0.1317
     10 C         140.0565  146.1440  157.4703 C.ar    1  UNL1        0.0382
     11 C         139.7006  146.5699  156.0767 C.ar    1  UNL1        0.0757
     12 C         140.0156  145.6743  154.9153 C.ar    1  UNL1        0.0246
     13 C         140.6864  144.3529  155.1475 C.ar    1  UNL1        0.1002
     14 N         141.0422  143.9270  156.5411 N.ar    1  UNL1       -0.2292
     15 C         139.0299  147.8913  155.8445 C.3     1  UNL1        0.4187
     16 F         138.3591  149.2127  155.6123 F       1  UNL1       -0.1659
     17 F         139.2389  147.7378  154.3671 F       1  UNL1       -0.1659
     18 F         138.8208  148.0447  157.3219 F       1  UNL1       -0.1659
     19 C         143.3444  142.2417  163.5111 C.3     1  UNL1        0.0704
     20 C         144.6695  141.6280  163.8534 C.3     1  UNL1        0.0100
     21 C         144.6110  140.1715  163.4994 C.3     1  UNL1        0.0162
     22 C         143.2497  139.8851  162.9383 C.3     1  UNL1        0.0544
     23 C         142.4668  141.1647  162.9455 C.3     1  UNL1        0.0243
     24 C         144.0957  144.6999  163.1330 C.3     1  UNL1        0.0005
     25 C         143.9722  143.5023  164.0276 C.3     1  UNL1        0.0082
     26 C         144.4767  143.5651  165.4389 C.3     1  UNL1        0.0005
     27 N         142.7577  138.5532  162.4549 N.3     1  UNL1       -0.2995
     28 H         143.0874  137.8571  163.1236 H       1  UNL1        0.1232
     29 C         141.2874  138.3174  162.2739 C.3     1  UNL1        0.0590
     30 C         140.6584  138.5041  160.9250 C.3     1  UNL1        0.0478
     31 C         139.1882  138.2684  160.7439 C.3     1  UNL1        0.1435
     32 O         138.3469  137.8458  161.9117 O.3     1  UNL1       -0.3537
     33 C         138.9759  137.6591  163.2606 C.3     1  UNL1        0.1435
     34 C         140.4462  137.8949  163.4416 C.3     1  UNL1        0.0478
@<TRIPOS>BOND
     1    24    25    1
     2    25    26    1
     3    19    25    1
     4    19     1    1
     5     1     2    2
     6     1     3   am
     7     3     4    1
     8     4     5    1
     9     5     6    1
    10     6     9    1
    11     9    10   ar
    12    10    11   ar
    13    11    15    1
    14    15    16    1
    15    15    17    1
    16    15    18    1
    17    11    12   ar
    18    12    13   ar
    19    13    14   ar
    20     6     7    1
    21     7     8    1
    22    19    20    1
    23    20    21    1
    24    21    22    1
    25    22    27    1
    26    27    29    1
    27    29    30    1
    28    30    31    1
    29    31    32    1
    30    32    33    1
    31    33    34    1
    32    22    23    1
    33    23    19    1
    34     8     3    1
    35    34    29    1
    36    14     9   ar
    37    27    28    1
