@<TRIPOS>MOLECULE
*****
 31 35 0 0 0
SMALL
GASTEIGER

@<TRIPOS>ATOM
      1 C         138.7296  141.9011  162.8871 C.ar    1  UNL1        0.0041
      2 C         137.8248  142.9827  162.3758 C.ar    1  UNL1        0.0002
      3 C         137.6298  144.2373  163.1746 C.ar    1  UNL1        0.0015
      4 C         138.3397  144.4102  164.4846 C.ar    1  UNL1        0.0192
      5 C         139.2445  143.3286  164.9959 C.ar    1  UNL1        0.0856
      6 N         139.9543  143.5015  166.3059 N.ar    1  UNL1       -0.2264
      7 C         140.8591  142.4199  166.8172 C.ar    1  UNL1        0.1651
      8 N         141.0541  141.1653  166.0184 N.ar    1  UNL1       -0.2121
      9 C         140.3443  140.9924  164.7084 C.ar    1  UNL1        0.1318
     10 C         139.4394  142.0740  164.1971 C.ar    1  UNL1        0.0491
     11 C         139.3144  138.1373  160.4908 C.ar    1  UNL1        0.0000
     12 C         140.1660  139.3412  160.2161 C.ar    1  UNL1        0.0000
     13 C         139.9710  140.5958  161.0149 C.ar    1  UNL1        0.0000
     14 C         138.9245  140.6465  162.0883 C.ar    1  UNL1        0.0001
     15 C         138.0730  139.4426  162.3630 C.ar    1  UNL1        0.0000
     16 C         138.2679  138.1880  161.5643 C.ar    1  UNL1        0.0000
     17 C         141.5690  142.5928  168.1272 C.ar    1  UNL1        0.0550
     18 C         143.0051  142.1813  168.2622 C.ar    1  UNL1        0.0062
     19 C         143.7149  142.3542  169.5722 C.ar    1  UNL1        0.0208
     20 C         142.9887  142.9387  170.7473 C.ar    1  UNL1        0.0989
     21 N         141.5526  143.3503  170.6124 N.ar    1  UNL1       -0.2422
     22 C         140.8427  143.1774  169.3024 C.ar    1  UNL1        0.1019
     23 N         140.5392  139.7378  163.9096 N.pl3   1  UNL1       -0.3131
     24 H         139.7723  139.3187  163.4564 H       1  UNL1        0.1485
     25 C         141.9027  139.1219  163.8013 C.3     1  UNL1        0.1348
     26 C         143.0894  139.9796  163.4760 C.ar    1  UNL1        0.0788
     27 C         144.1401  140.2319  164.5164 C.ar    1  UNL1        0.0165
     28 C         145.3269  141.0897  164.1912 C.ar    1  UNL1        0.0029
     29 C         145.4631  141.6951  162.8256 C.ar    1  UNL1        0.0207
     30 C         144.4123  141.4428  161.7852 C.ar    1  UNL1        0.0985
     31 N         143.2255  140.5850  162.1104 N.ar    1  UNL1       -0.2464
@<TRIPOS>BOND
     1    11    12   ar
     2    12    13   ar
     3    13    14   ar
     4    14     1    1
     5     1     2   ar
     6     2     3   ar
     7     3     4   ar
     8     4     5   ar
     9     5     6   ar
    10     6     7   ar
    11     7    17    1
    12    17    18   ar
    13    18    19   ar
    14    19    20   ar
    15    20    21   ar
    16    21    22   ar
    17     7     8   ar
    18     8     9   ar
    19     9    23    1
    20    23    25    1
    21    25    26    1
    22    26    27   ar
    23    27    28   ar
    24    28    29   ar
    25    29    30   ar
    26    30    31   ar
    27     9    10   ar
    28    14    15   ar
    29    15    16   ar
    30    16    11   ar
    31    10     1   ar
    32    10     5   ar
    33    22    17   ar
    34    31    26   ar
    35    23    24    1
@<TRIPOS>MOLECULE
*****
 31 35 0 0 0
SMALL
GASTEIGER

@<TRIPOS>ATOM
      1 C         138.9200  140.3291  164.5700 C.ar    1  UNL1        0.0041
      2 C         138.4739  139.3517  165.6167 C.ar    1  UNL1        0.0002
      3 C         138.5499  137.8780  165.3477 C.ar    1  UNL1        0.0015
      4 C         139.0721  137.3818  164.0320 C.ar    1  UNL1        0.0192
      5 C         139.5182  138.3592  162.9853 C.ar    1  UNL1        0.0856
      6 N         140.0404  137.8629  161.6696 N.ar    1  UNL1       -0.2264
      7 C         140.4865  138.8404  160.6229 C.ar    1  UNL1        0.1651
      8 N         140.4105  140.3141  160.8919 N.ar    1  UNL1       -0.2121
      9 C         139.8883  140.8104  162.2076 C.ar    1  UNL1        0.1318
     10 C         139.4422  139.8329  163.2543 C.ar    1  UNL1        0.0491
     11 C         138.6921  144.7504  165.3771 C.ar    1  UNL1        0.0000
     12 C         137.6099  144.0753  164.5877 C.ar    1  UNL1        0.0000
     13 C         137.6859  142.6015  164.3187 C.ar    1  UNL1        0.0000
     14 C         138.8440  141.8029  164.8391 C.ar    1  UNL1        0.0001
     15 C         139.9262  142.4780  165.6284 C.ar    1  UNL1        0.0000
     16 C         139.8503  143.9517  165.8974 C.ar    1  UNL1        0.0000
     17 C         141.0086  138.3441  159.3072 C.ar    1  UNL1        0.0550
     18 C         140.0681  138.1360  158.1574 C.ar    1  UNL1        0.0062
     19 C         140.5903  137.6397  156.8417 C.ar    1  UNL1        0.0208
     20 C         142.0530  137.3516  156.6758 C.ar    1  UNL1        0.0989
     21 N         142.9935  137.5597  157.8256 N.ar    1  UNL1       -0.2422
     22 C         142.4714  138.0560  159.1413 C.ar    1  UNL1        0.1019
     23 N         139.8123  142.2841  162.4767 N.pl3   1  UNL1       -0.3131
     24 H         139.0270  142.6608  162.9357 H       1  UNL1        0.1485
     25 C         140.9328  143.1839  162.0464 C.3     1  UNL1        0.1348
     26 C         142.0847  143.4423  162.9717 C.ar    1  UNL1        0.0788
     27 C         142.4679  144.8508  163.3170 C.ar    1  UNL1        0.0165
     28 C         143.6198  145.1093  164.2424 C.ar    1  UNL1        0.0029
     29 C         144.3885  143.9593  164.8225 C.ar    1  UNL1        0.0207
     30 C         144.0053  142.5507  164.4772 C.ar    1  UNL1        0.0985
     31 N         142.8534  142.2923  163.5518 N.ar    1  UNL1       -0.2464
@<TRIPOS>BOND
     1    11    12   ar
     2    12    13   ar
     3    13    14   ar
     4    14     1    1
     5     1     2   ar
     6     2     3   ar
     7     3     4   ar
     8     4     5   ar
     9     5     6   ar
    10     6     7   ar
    11     7    17    1
    12    17    18   ar
    13    18    19   ar
    14    19    20   ar
    15    20    21   ar
    16    21    22   ar
    17     7     8   ar
    18     8     9   ar
    19     9    23    1
    20    23    25    1
    21    25    26    1
    22    26    27   ar
    23    27    28   ar
    24    28    29   ar
    25    29    30   ar
    26    30    31   ar
    27     9    10   ar
    28    14    15   ar
    29    15    16   ar
    30    16    11   ar
    31    10     1   ar
    32    10     5   ar
    33    22    17   ar
    34    31    26   ar
    35    23    24    1
@<TRIPOS>MOLECULE
*****
 31 35 0 0 0
SMALL
GASTEIGER

@<TRIPOS>ATOM
      1 C         139.8275  140.0259  167.7078 C.ar    1  UNL1        0.0041
      2 C         138.5047  139.5050  168.1862 C.ar    1  UNL1        0.0002
      3 C         137.6796  138.6234  167.2963 C.ar    1  UNL1        0.0015
      4 C         138.1773  138.2628  165.9280 C.ar    1  UNL1        0.0192
      5 C         139.5001  138.7837  165.4496 C.ar    1  UNL1        0.0856
      6 N         139.9977  138.4231  164.0813 N.ar    1  UNL1       -0.2264
      7 C         141.3205  138.9440  163.6029 C.ar    1  UNL1        0.1651
      8 N         142.1457  139.8256  164.4929 N.ar    1  UNL1       -0.2121
      9 C         141.6480  140.1862  165.8612 C.ar    1  UNL1        0.1318
     10 C         140.3251  139.6653  166.3395 C.ar    1  UNL1        0.0491
     11 C         142.3029  142.6706  170.3777 C.ar    1  UNL1        0.0000
     12 C         141.2663  143.2740  169.4770 C.ar    1  UNL1        0.0000
     13 C         140.4411  142.3924  168.5871 C.ar    1  UNL1        0.0000
     14 C         140.6526  140.9075  168.5978 C.ar    1  UNL1        0.0001
     15 C         141.6893  140.3041  169.4985 C.ar    1  UNL1        0.0000
     16 C         142.5145  141.1856  170.3884 C.ar    1  UNL1        0.0000
     17 C         141.8182  138.5834  162.2346 C.ar    1  UNL1        0.0550
     18 C         143.2133  138.0618  162.0573 C.ar    1  UNL1        0.0062
     19 C         143.7110  137.7012  160.6890 C.ar    1  UNL1        0.0208
     20 C         142.8135  137.8621  159.4980 C.ar    1  UNL1        0.0989
     21 N         141.4183  138.3837  159.6752 N.ar    1  UNL1       -0.2422
     22 C         140.9206  138.7443  161.0436 C.ar    1  UNL1        0.1019
     23 N         142.4731  141.0678  166.7511 N.pl3   1  UNL1       -0.3131
     24 H         142.3900  140.9955  167.7294 H       1  UNL1        0.1485
     25 C         143.4249  142.0595  166.1505 C.3     1  UNL1        0.1348
     26 C         142.9077  143.1532  165.2637 C.ar    1  UNL1        0.0788
     27 C         143.8676  144.0152  164.4986 C.ar    1  UNL1        0.0165
     28 C         143.3505  145.1089  163.6117 C.ar    1  UNL1        0.0029
     29 C         141.8734  145.3406  163.4901 C.ar    1  UNL1        0.0207
     30 C         140.9136  144.4784  164.2553 C.ar    1  UNL1        0.0985
     31 N         141.4307  143.3848  165.1421 N.ar    1  UNL1       -0.2464
@<TRIPOS>BOND
     1    11    12   ar
     2    12    13   ar
     3    13    14   ar
     4    14     1    1
     5     1     2   ar
     6     2     3   ar
     7     3     4   ar
     8     4     5   ar
     9     5     6   ar
    10     6     7   ar
    11     7    17    1
    12    17    18   ar
    13    18    19   ar
    14    19    20   ar
    15    20    21   ar
    16    21    22   ar
    17     7     8   ar
    18     8     9   ar
    19     9    23    1
    20    23    25    1
    21    25    26    1
    22    26    27   ar
    23    27    28   ar
    24    28    29   ar
    25    29    30   ar
    26    30    31   ar
    27     9    10   ar
    28    14    15   ar
    29    15    16   ar
    30    16    11   ar
    31    10     1   ar
    32    10     5   ar
    33    22    17   ar
    34    31    26   ar
    35    23    24    1
@<TRIPOS>MOLECULE
*****
 31 35 0 0 0
SMALL
GASTEIGER

@<TRIPOS>ATOM
      1 C         140.2410  143.8726  164.1416 C.ar    1  UNL1        0.0041
      2 C         139.2278  144.4547  165.0821 C.ar    1  UNL1        0.0002
      3 C         137.7794  144.4929  164.6942 C.ar    1  UNL1        0.0015
      4 C         137.3441  143.9490  163.3658 C.ar    1  UNL1        0.0192
      5 C         138.3572  143.3669  162.4253 C.ar    1  UNL1        0.0856
      6 N         137.9219  142.8230  161.0969 N.ar    1  UNL1       -0.2264
      7 C         138.9351  142.2409  160.1563 C.ar    1  UNL1        0.1651
      8 N         140.3836  142.2026  160.5442 N.ar    1  UNL1       -0.2121
      9 C         140.8189  142.7465  161.8726 C.ar    1  UNL1        0.1318
     10 C         139.8057  143.3287  162.8132 C.ar    1  UNL1        0.0491
     11 C         144.5865  143.7580  165.3051 C.ar    1  UNL1        0.0000
     12 C         143.6340  142.7416  165.8617 C.ar    1  UNL1        0.0000
     13 C         142.1855  142.7799  165.4739 C.ar    1  UNL1        0.0000
     14 C         141.6895  143.8344  164.5294 C.ar    1  UNL1        0.0001
     15 C         142.6420  144.8507  163.9728 C.ar    1  UNL1        0.0000
     16 C         144.0905  144.8125  164.3606 C.ar    1  UNL1        0.0000
     17 C         138.4998  141.6970  158.8279 C.ar    1  UNL1        0.0550
     18 C         137.8253  142.5955  157.8342 C.ar    1  UNL1        0.0062
     19 C         137.3900  142.0516  156.5057 C.ar    1  UNL1        0.0208
     20 C         137.6292  140.6091  156.1711 C.ar    1  UNL1        0.0989
     21 N         138.3037  139.7105  157.1649 N.ar    1  UNL1       -0.2422
     22 C         138.7390  140.2544  158.4933 C.ar    1  UNL1        0.1019
     23 N         142.2674  142.7083  162.2605 N.pl3   1  UNL1       -0.3131
     24 H         142.6846  143.4934  162.6834 H       1  UNL1        0.1485
     25 C         143.0802  141.4740  162.0040 C.3     1  UNL1        0.1348
     26 C         143.3443  140.5050  163.1182 C.ar    1  UNL1        0.0788
     27 C         144.7504  140.2540  163.5762 C.ar    1  UNL1        0.0165
     28 C         145.0146  139.2850  164.6904 C.ar    1  UNL1        0.0029
     29 C         143.8726  138.5670  165.3464 C.ar    1  UNL1        0.0207
     30 C         142.4664  138.8180  164.8883 C.ar    1  UNL1        0.0985
     31 N         142.2023  139.7870  163.7742 N.ar    1  UNL1       -0.2464
@<TRIPOS>BOND
     1    11    12   ar
     2    12    13   ar
     3    13    14   ar
     4    14     1    1
     5     1     2   ar
     6     2     3   ar
     7     3     4   ar
     8     4     5   ar
     9     5     6   ar
    10     6     7   ar
    11     7    17    1
    12    17    18   ar
    13    18    19   ar
    14    19    20   ar
    15    20    21   ar
    16    21    22   ar
    17     7     8   ar
    18     8     9   ar
    19     9    23    1
    20    23    25    1
    21    25    26    1
    22    26    27   ar
    23    27    28   ar
    24    28    29   ar
    25    29    30   ar
    26    30    31   ar
    27     9    10   ar
    28    14    15   ar
    29    15    16   ar
    30    16    11   ar
    31    10     1   ar
    32    10     5   ar
    33    22    17   ar
    34    31    26   ar
    35    23    24    1
@<TRIPOS>MOLECULE
*****
 31 35 0 0 0
SMALL
GASTEIGER

@<TRIPOS>ATOM
      1 C         139.9595  140.6904  167.3630 C.ar    1  UNL1        0.0041
      2 C         139.0431  139.6183  167.8736 C.ar    1  UNL1        0.0002
      3 C         138.0685  138.9591  166.9433 C.ar    1  UNL1        0.0015
      4 C         138.0102  139.3721  165.5024 C.ar    1  UNL1        0.0192
      5 C         138.9266  140.4442  164.9918 C.ar    1  UNL1        0.0856
      6 N         138.8683  140.8571  163.5510 N.ar    1  UNL1       -0.2264
      7 C         139.7847  141.9292  163.0404 C.ar    1  UNL1        0.1651
      8 N         140.7594  142.5885  163.9707 N.ar    1  UNL1       -0.2121
      9 C         140.8177  142.1755  165.4115 C.ar    1  UNL1        0.1318
     10 C         139.9012  141.1033  165.9221 C.ar    1  UNL1        0.0491
     11 C         142.8837  142.6681  170.1538 C.ar    1  UNL1        0.0000
     12 C         143.2510  141.3852  169.4687 C.ar    1  UNL1        0.0000
     13 C         142.2762  140.7260  168.5384 C.ar    1  UNL1        0.0000
     14 C         140.9343  141.3496  168.2933 C.ar    1  UNL1        0.0001
     15 C         140.5670  142.6325  168.9783 C.ar    1  UNL1        0.0000
     16 C         141.5417  143.2917  169.9085 C.ar    1  UNL1        0.0000
     17 C         139.7264  142.3422  161.5995 C.ar    1  UNL1        0.0550
     18 C         140.9919  142.6518  160.8563 C.ar    1  UNL1        0.0062
     19 C         140.9336  143.0647  159.4154 C.ar    1  UNL1        0.0208
     20 C         139.6098  143.1681  158.7178 C.ar    1  UNL1        0.0989
     21 N         138.3441  142.8585  159.4611 N.ar    1  UNL1       -0.2422
     22 C         138.4024  142.4455  160.9019 C.ar    1  UNL1        0.1019
     23 N         141.7924  142.8347  166.3418 N.pl3   1  UNL1       -0.3131
     24 H         141.4705  143.2715  167.1633 H       1  UNL1        0.1485
     25 C         143.2576  142.8284  166.0205 C.3     1  UNL1        0.1348
     26 C         143.7707  142.0067  164.8753 C.ar    1  UNL1        0.0788
     27 C         143.8934  140.5184  165.0158 C.ar    1  UNL1        0.0165
     28 C         144.4066  139.6967  163.8705 C.ar    1  UNL1        0.0029
     29 C         144.7970  140.3634  162.5848 C.ar    1  UNL1        0.0207
     30 C         144.6743  141.8518  162.4443 C.ar    1  UNL1        0.0985
     31 N         144.1612  142.6734  163.5895 N.ar    1  UNL1       -0.2464
@<TRIPOS>BOND
     1    11    12   ar
     2    12    13   ar
     3    13    14   ar
     4    14     1    1
     5     1     2   ar
     6     2     3   ar
     7     3     4   ar
     8     4     5   ar
     9     5     6   ar
    10     6     7   ar
    11     7    17    1
    12    17    18   ar
    13    18    19   ar
    14    19    20   ar
    15    20    21   ar
    16    21    22   ar
    17     7     8   ar
    18     8     9   ar
    19     9    23    1
    20    23    25    1
    21    25    26    1
    22    26    27   ar
    23    27    28   ar
    24    28    29   ar
    25    29    30   ar
    26    30    31   ar
    27     9    10   ar
    28    14    15   ar
    29    15    16   ar
    30    16    11   ar
    31    10     1   ar
    32    10     5   ar
    33    22    17   ar
    34    31    26   ar
    35    23    24    1
@<TRIPOS>MOLECULE
*****
 31 35 0 0 0
SMALL
GASTEIGER

@<TRIPOS>ATOM
      1 C         143.5637  142.4762  164.5707 C.ar    1  UNL1        0.0041
      2 C         144.2437  143.5365  165.3851 C.ar    1  UNL1        0.0002
      3 C         144.2871  144.9512  164.8882 C.ar    1  UNL1        0.0015
      4 C         143.6506  145.3054  163.5770 C.ar    1  UNL1        0.0192
      5 C         142.9706  144.2451  162.7626 C.ar    1  UNL1        0.0856
      6 N         142.3341  144.5994  161.4514 N.ar    1  UNL1       -0.2264
      7 C         141.6541  143.5391  160.6370 C.ar    1  UNL1        0.1651
      8 N         141.6106  142.1243  161.1339 N.ar    1  UNL1       -0.2121
      9 C         142.2472  141.7701  162.4451 C.ar    1  UNL1        0.1318
     10 C         142.9272  142.8305  163.2595 C.ar    1  UNL1        0.0491
     11 C         143.4332  138.2321  166.0612 C.ar    1  UNL1        0.0000
     12 C         142.4092  139.2233  166.5293 C.ar    1  UNL1        0.0000
     13 C         142.4527  140.6380  166.0325 C.ar    1  UNL1        0.0000
     14 C         143.5202  141.0615  165.0676 C.ar    1  UNL1        0.0001
     15 C         144.5442  140.0704  164.5994 C.ar    1  UNL1        0.0000
     16 C         144.5007  138.6557  165.0962 C.ar    1  UNL1        0.0000
     17 C         141.0176  143.8933  159.3258 C.ar    1  UNL1        0.0550
     18 C         140.8843  145.3315  158.9211 C.ar    1  UNL1        0.0062
     19 C         140.2478  145.6858  157.6099 C.ar    1  UNL1        0.0208
     20 C         139.7446  144.6019  156.7033 C.ar    1  UNL1        0.0989
     21 N         139.8779  143.1636  157.1079 N.ar    1  UNL1       -0.2422
     22 C         140.5144  142.8093  158.4192 C.ar    1  UNL1        0.1019
     23 N         142.2037  140.3554  162.9419 N.pl3   1  UNL1       -0.3131
     24 H         142.9679  139.9849  163.4399 H       1  UNL1        0.1485
     25 C         140.9958  139.5053  162.6802 C.3     1  UNL1        0.1348
     26 C         140.0389  139.1987  163.7938 C.ar    1  UNL1        0.0788
     27 C         139.8626  137.7850  164.2632 C.ar    1  UNL1        0.0165
     28 C         138.9056  137.4783  165.3769 C.ar    1  UNL1        0.0029
     29 C         138.1249  138.5854  166.0211 C.ar    1  UNL1        0.0207
     30 C         138.3012  139.9991  165.5516 C.ar    1  UNL1        0.0985
     31 N         139.2582  140.3057  164.4380 N.ar    1  UNL1       -0.2464
@<TRIPOS>BOND
     1    11    12   ar
     2    12    13   ar
     3    13    14   ar
     4    14     1    1
     5     1     2   ar
     6     2     3   ar
     7     3     4   ar
     8     4     5   ar
     9     5     6   ar
    10     6     7   ar
    11     7    17    1
    12    17    18   ar
    13    18    19   ar
    14    19    20   ar
    15    20    21   ar
    16    21    22   ar
    17     7     8   ar
    18     8     9   ar
    19     9    23    1
    20    23    25    1
    21    25    26    1
    22    26    27   ar
    23    27    28   ar
    24    28    29   ar
    25    29    30   ar
    26    30    31   ar
    27     9    10   ar
    28    14    15   ar
    29    15    16   ar
    30    16    11   ar
    31    10     1   ar
    32    10     5   ar
    33    22    17   ar
    34    31    26   ar
    35    23    24    1
@<TRIPOS>MOLECULE
*****
 31 35 0 0 0
SMALL
GASTEIGER

@<TRIPOS>ATOM
      1 C         139.0038  141.5992  163.7550 C.ar    1  UNL1        0.0041
      2 C         138.1031  142.3070  164.7234 C.ar    1  UNL1        0.0002
      3 C         137.5907  143.6802  164.4046 C.ar    1  UNL1        0.0015
      4 C         137.9789  144.3456  163.1176 C.ar    1  UNL1        0.0192
      5 C         138.8796  143.6378  162.1492 C.ar    1  UNL1        0.0856
      6 N         139.2678  144.3031  160.8622 N.ar    1  UNL1       -0.2264
      7 C         140.1685  143.5953  159.8938 C.ar    1  UNL1        0.1651
      8 N         140.6810  142.2220  160.2125 N.ar    1  UNL1       -0.2121
      9 C         140.2928  141.5566  161.4996 C.ar    1  UNL1        0.1318
     10 C         139.3920  142.2645  162.4680 C.ar    1  UNL1        0.0491
     11 C         140.5412  137.4793  164.7111 C.ar    1  UNL1        0.0000
     12 C         141.2710  138.6883  165.2170 C.ar    1  UNL1        0.0000
     13 C         140.7585  140.0616  164.8983 C.ar    1  UNL1        0.0000
     14 C         139.5163  140.2259  164.0737 C.ar    1  UNL1        0.0001
     15 C         138.7866  139.0169  163.5678 C.ar    1  UNL1        0.0000
     16 C         139.2990  137.6437  163.8865 C.ar    1  UNL1        0.0000
     17 C         140.5567  144.2607  158.6068 C.ar    1  UNL1        0.0550
     18 C         141.6687  145.2672  158.5885 C.ar    1  UNL1        0.0062
     19 C         142.0569  145.9326  157.3014 C.ar    1  UNL1        0.0208
     20 C         141.3332  145.5915  156.0326 C.ar    1  UNL1        0.0989
     21 N         140.2211  144.5849  156.0509 N.ar    1  UNL1       -0.2422
     22 C         139.8329  143.9195  157.3380 C.ar    1  UNL1        0.1019
     23 N         140.8052  140.1834  161.8183 N.pl3   1  UNL1       -0.3131
     24 H         140.2227  139.5344  162.2752 H       1  UNL1        0.1485
     25 C         142.2052  139.7990  161.4410 C.3     1  UNL1        0.1348
     26 C         143.3683  140.3565  162.2067 C.ar    1  UNL1        0.0788
     27 C         144.0386  139.5271  163.2615 C.ar    1  UNL1        0.0165
     28 C         145.2017  140.0846  164.0273 C.ar    1  UNL1        0.0029
     29 C         145.6945  141.4715  163.7382 C.ar    1  UNL1        0.0207
     30 C         145.0242  142.3009  162.6832 C.ar    1  UNL1        0.0985
     31 N         143.8611  141.7434  161.9175 N.ar    1  UNL1       -0.2464
@<TRIPOS>BOND
     1    11    12   ar
     2    12    13   ar
     3    13    14   ar
     4    14     1    1
     5     1     2   ar
     6     2     3   ar
     7     3     4   ar
     8     4     5   ar
     9     5     6   ar
    10     6     7   ar
    11     7    17    1
    12    17    18   ar
    13    18    19   ar
    14    19    20   ar
    15    20    21   ar
    16    21    22   ar
    17     7     8   ar
    18     8     9   ar
    19     9    23    1
    20    23    25    1
    21    25    26    1
    22    26    27   ar
    23    27    28   ar
    24    28    29   ar
    25    29    30   ar
    26    30    31   ar
    27     9    10   ar
    28    14    15   ar
    29    15    16   ar
    30    16    11   ar
    31    10     1   ar
    32    10     5   ar
    33    22    17   ar
    34    31    26   ar
    35    23    24    1
@<TRIPOS>MOLECULE
*****
 31 35 0 0 0
SMALL
GASTEIGER

@<TRIPOS>ATOM
      1 C         142.4138  142.4651  166.4830 C.ar    1  UNL1        0.0041
      2 C         143.8194  142.9514  166.6774 C.ar    1  UNL1        0.0002
      3 C         144.5914  143.4985  165.5135 C.ar    1  UNL1        0.0015
      4 C         143.9579  143.5593  164.1552 C.ar    1  UNL1        0.0192
      5 C         142.5523  143.0730  163.9608 C.ar    1  UNL1        0.0856
      6 N         141.9188  143.1337  162.6025 N.ar    1  UNL1       -0.2264
      7 C         140.5132  142.6474  162.4081 C.ar    1  UNL1        0.1651
      8 N         139.7411  142.1003  163.5720 N.ar    1  UNL1       -0.2121
      9 C         140.3746  142.0396  164.9303 C.ar    1  UNL1        0.1318
     10 C         141.7803  142.5259  165.1247 C.ar    1  UNL1        0.0491
     11 C         140.0975  140.8239  169.9746 C.ar    1  UNL1        0.0000
     12 C         141.0343  139.9349  169.2116 C.ar    1  UNL1        0.0000
     13 C         141.8064  140.4820  168.0477 C.ar    1  UNL1        0.0000
     14 C         141.6417  141.9180  167.6469 C.ar    1  UNL1        0.0001
     15 C         140.7049  142.8070  168.4099 C.ar    1  UNL1        0.0000
     16 C         139.9328  142.2599  169.5737 C.ar    1  UNL1        0.0000
     17 C         139.8797  142.7082  161.0498 C.ar    1  UNL1        0.0550
     18 C         139.0627  141.5534  160.5510 C.ar    1  UNL1        0.0062
     19 C         138.4291  141.6142  159.1927 C.ar    1  UNL1        0.0208
     20 C         138.6126  142.8297  158.3333 C.ar    1  UNL1        0.0989
     21 N         139.4297  143.9846  158.8321 N.ar    1  UNL1       -0.2422
     22 C         140.0632  143.9239  160.1904 C.ar    1  UNL1        0.1019
     23 N         139.6026  141.4925  166.0942 N.pl3   1  UNL1       -0.3131
     24 H         139.4994  142.0298  166.9126 H       1  UNL1        0.1485
     25 C         138.9878  140.1267  166.0110 C.3     1  UNL1        0.1348
     26 C         139.5725  139.0957  165.0917 C.ar    1  UNL1        0.0788
     27 C         140.8973  138.4698  165.4127 C.ar    1  UNL1        0.0165
     28 C         141.4821  137.4387  164.4934 C.ar    1  UNL1        0.0029
     29 C         140.7421  137.0337  163.2532 C.ar    1  UNL1        0.0207
     30 C         139.4172  137.6597  162.9322 C.ar    1  UNL1        0.0985
     31 N         138.8325  138.6907  163.8515 N.ar    1  UNL1       -0.2464
@<TRIPOS>BOND
     1    11    12   ar
     2    12    13   ar
     3    13    14   ar
     4    14     1    1
     5     1     2   ar
     6     2     3   ar
     7     3     4   ar
     8     4     5   ar
     9     5     6   ar
    10     6     7   ar
    11     7    17    1
    12    17    18   ar
    13    18    19   ar
    14    19    20   ar
    15    20    21   ar
    16    21    22   ar
    17     7     8   ar
    18     8     9   ar
    19     9    23    1
    20    23    25    1
    21    25    26    1
    22    26    27   ar
    23    27    28   ar
    24    28    29   ar
    25    29    30   ar
    26    30    31   ar
    27     9    10   ar
    28    14    15   ar
    29    15    16   ar
    30    16    11   ar
    31    10     1   ar
    32    10     5   ar
    33    22    17   ar
    34    31    26   ar
    35    23    24    1
@<TRIPOS>MOLECULE
*****
 31 35 0 0 0
SMALL
GASTEIGER

@<TRIPOS>ATOM
      1 C         142.9379  141.7284  166.3672 C.ar    1  UNL1        0.0041
      2 C         143.8043  142.9313  166.5960 C.ar    1  UNL1        0.0002
      3 C         144.5970  143.5112  165.4624 C.ar    1  UNL1        0.0015
      4 C         144.5233  142.8883  164.0998 C.ar    1  UNL1        0.0192
      5 C         143.6569  141.6854  163.8710 C.ar    1  UNL1        0.0856
      6 N         143.5832  141.0624  162.5085 N.ar    1  UNL1       -0.2264
      7 C         142.7168  139.8596  162.2796 C.ar    1  UNL1        0.1651
      8 N         141.9240  139.2796  163.4133 N.ar    1  UNL1       -0.2121
      9 C         141.9977  139.9026  164.7759 C.ar    1  UNL1        0.1318
     10 C         142.8642  141.1055  165.0047 C.ar    1  UNL1        0.0491
     11 C         140.5596  139.9886  169.7683 C.ar    1  UNL1        0.0000
     12 C         141.9079  139.4248  169.4304 C.ar    1  UNL1        0.0000
     13 C         142.7007  140.0048  168.2967 C.ar    1  UNL1        0.0000
     14 C         142.1451  141.1485  167.5009 C.ar    1  UNL1        0.0001
     15 C         140.7968  141.7122  167.8388 C.ar    1  UNL1        0.0000
     16 C         140.0040  141.1323  168.9725 C.ar    1  UNL1        0.0000
     17 C         142.6431  139.2366  160.9171 C.ar    1  UNL1        0.0550
     18 C         142.0006  139.9823  159.7852 C.ar    1  UNL1        0.0062
     19 C         141.9269  139.3593  158.4227 C.ar    1  UNL1        0.0208
     20 C         142.4957  137.9907  158.1920 C.ar    1  UNL1        0.0989
     21 N         143.1382  137.2449  159.3239 N.ar    1  UNL1       -0.2422
     22 C         143.2119  137.8679  160.6864 C.ar    1  UNL1        0.1019
     23 N         141.2050  139.3226  165.9095 N.pl3   1  UNL1       -0.3131
     24 H         141.6517  139.0955  166.7570 H       1  UNL1        0.1485
     25 C         139.7317  139.0888  165.7521 C.3     1  UNL1        0.1348
     26 C         138.9368  139.9290  164.7971 C.ar    1  UNL1        0.0788
     27 C         138.5933  141.3455  165.1513 C.ar    1  UNL1        0.0165
     28 C         137.7984  142.1858  164.1962 C.ar    1  UNL1        0.0029
     29 C         137.3470  141.6095  162.8869 C.ar    1  UNL1        0.0207
     30 C         137.6905  140.1929  162.5328 C.ar    1  UNL1        0.0985
     31 N         138.4854  139.3527  163.4878 N.ar    1  UNL1       -0.2464
@<TRIPOS>BOND
     1    11    12   ar
     2    12    13   ar
     3    13    14   ar
     4    14     1    1
     5     1     2   ar
     6     2     3   ar
     7     3     4   ar
     8     4     5   ar
     9     5     6   ar
    10     6     7   ar
    11     7    17    1
    12    17    18   ar
    13    18    19   ar
    14    19    20   ar
    15    20    21   ar
    16    21    22   ar
    17     7     8   ar
    18     8     9   ar
    19     9    23    1
    20    23    25    1
    21    25    26    1
    22    26    27   ar
    23    27    28   ar
    24    28    29   ar
    25    29    30   ar
    26    30    31   ar
    27     9    10   ar
    28    14    15   ar
    29    15    16   ar
    30    16    11   ar
    31    10     1   ar
    32    10     5   ar
    33    22    17   ar
    34    31    26   ar
    35    23    24    1
