@<TRIPOS>MOLECULE
*****
 28 31 0 0 0
SMALL
GASTEIGER

@<TRIPOS>ATOM
      1 O         141.1197  143.7145  161.7199 O.2     1  UNL1       -0.2522
      2 C         140.3359  142.5680  161.1532 C.2     1  UNL1        0.3080
      3 N         140.1321  142.4587  159.6711 N.am    1  UNL1       -0.2681
      4 N         139.7559  141.5309  162.0685 N.am    1  UNL1       -0.2559
      5 C         138.9905  140.4276  161.3998 C.3     1  UNL1        0.1425
      6 C         138.2981  139.2550  162.0290 C.3     1  UNL1        0.2268
      7 O         138.2002  138.8962  163.4820 O.3     1  UNL1       -0.4739
      8 C         138.7703  139.6212  164.6650 C.ar    1  UNL1        0.1362
      9 C         138.4387  138.9205  165.9491 C.ar    1  UNL1        0.0366
     10 C         138.9160  139.4828  167.2553 C.ar    1  UNL1        0.0031
     11 C         139.7250  140.7458  167.2772 C.ar    1  UNL1        0.0000
     12 C         140.0566  141.4464  165.9930 C.ar    1  UNL1        0.0004
     13 C         139.5793  140.8841  164.6869 C.ar    1  UNL1        0.0317
     14 C         140.0179  141.7340  163.5313 C.3     1  UNL1        0.1248
     15 H         139.6177  141.7063  159.2991 H       1  UNL1        0.1564
     16 C         140.7122  143.4960  158.7558 C.ar    1  UNL1        0.0524
     17 C         142.1375  143.3833  158.3023 C.ar    1  UNL1        0.0148
     18 C         142.7174  144.4206  157.3870 C.ar    1  UNL1        0.0021
     19 C         141.8721  145.5704  156.9252 C.ar    1  UNL1        0.0115
     20 C         140.4468  145.6830  157.3788 C.ar    1  UNL1        0.0589
     21 CL        139.6015  146.8330  156.9170 Cl      1  UNL1       -0.0822
     22 C         139.8668  144.6459  158.2940 C.ar    1  UNL1        0.0261
     23 C         140.2023  141.3081  168.5833 C.ar    1  UNL1        0.0031
     24 C         140.3015  140.4224  169.7898 C.ar    1  UNL1        0.0207
     25 C         140.7788  140.9847  171.0959 C.ar    1  UNL1        0.0989
     26 N         141.1571  142.4328  171.1955 N.ar    1  UNL1       -0.2423
     27 C         141.0579  143.3186  169.9890 C.ar    1  UNL1        0.0989
     28 C         140.5806  142.7562  168.6829 C.ar    1  UNL1        0.0207
@<TRIPOS>BOND
     1     1     2    2
     2     2     3   am
     3     3    16    1
     4    16    17   ar
     5    17    18   ar
     6    18    19   ar
     7    19    20   ar
     8    20    21    1
     9    20    22   ar
    10     2     4   am
    11     4     5    1
    12     5     6    1
    13     6     7    1
    14     7     8    1
    15     8     9   ar
    16     9    10   ar
    17    10    11   ar
    18    11    23    1
    19    23    24   ar
    20    24    25   ar
    21    25    26   ar
    22    26    27   ar
    23    27    28   ar
    24    11    12   ar
    25    12    13   ar
    26    13    14    1
    27    22    16   ar
    28    14     4    1
    29    13     8   ar
    30    28    23   ar
    31     3    15    1
@<TRIPOS>MOLECULE
*****
 28 31 0 0 0
SMALL
GASTEIGER

@<TRIPOS>ATOM
      1 O         142.7393  137.9617  159.9615 O.2     1  UNL1       -0.2522
      2 C         141.4513  138.4201  159.3443 C.2     1  UNL1        0.3080
      3 N         141.2433  138.2968  157.8640 N.am    1  UNL1       -0.2681
      4 N         140.3713  139.0017  160.2076 N.am    1  UNL1       -0.2559
      5 C         139.1245  139.4284  159.4910 C.3     1  UNL1        0.1425
      6 C         137.8793  140.0386  160.0632 C.3     1  UNL1        0.2268
      7 O         137.5735  140.3727  161.4931 O.3     1  UNL1       -0.4739
      8 C         138.4372  140.1793  162.7042 C.ar    1  UNL1        0.1362
      9 C         137.7473  140.6501  163.9501 C.ar    1  UNL1        0.0366
     10 C         138.4405  140.5455  165.2763 C.ar    1  UNL1        0.0031
     11 C         139.8234  139.9701  165.3565 C.ar    1  UNL1        0.0000
     12 C         140.5132  139.4993  164.1104 C.ar    1  UNL1        0.0004
     13 C         139.8201  139.6039  162.7843 C.ar    1  UNL1        0.0317
     14 C         140.6808  139.0798  161.6732 C.3     1  UNL1        0.1248
     15 H         140.3979  138.5977  157.4590 H       1  UNL1        0.1564
     16 C         142.3233  137.7151  157.0007 C.ar    1  UNL1        0.0524
     17 C         143.1982  138.6186  156.1832 C.ar    1  UNL1        0.0148
     18 C         144.2782  138.0369  155.3200 C.ar    1  UNL1        0.0021
     19 C         144.4833  136.5517  155.2742 C.ar    1  UNL1        0.0115
     20 C         143.6085  135.6482  156.0917 C.ar    1  UNL1        0.0589
     21 CL        143.8137  134.1630  156.0460 Cl      1  UNL1       -0.0822
     22 C         142.5285  136.2299  156.9550 C.ar    1  UNL1        0.0261
     23 C         140.5165  139.8655  166.6826 C.ar    1  UNL1        0.0031
     24 C         139.7536  140.1166  167.9495 C.ar    1  UNL1        0.0207
     25 C         140.4468  140.0120  169.2756 C.ar    1  UNL1        0.0989
     26 N         141.9028  139.6562  169.3348 N.ar    1  UNL1       -0.2423
     27 C         142.6657  139.4051  168.0680 C.ar    1  UNL1        0.0989
     28 C         141.9725  139.5097  166.7418 C.ar    1  UNL1        0.0207
@<TRIPOS>BOND
     1     1     2    2
     2     2     3   am
     3     3    16    1
     4    16    17   ar
     5    17    18   ar
     6    18    19   ar
     7    19    20   ar
     8    20    21    1
     9    20    22   ar
    10     2     4   am
    11     4     5    1
    12     5     6    1
    13     6     7    1
    14     7     8    1
    15     8     9   ar
    16     9    10   ar
    17    10    11   ar
    18    11    23    1
    19    23    24   ar
    20    24    25   ar
    21    25    26   ar
    22    26    27   ar
    23    27    28   ar
    24    11    12   ar
    25    12    13   ar
    26    13    14    1
    27    22    16   ar
    28    14     4    1
    29    13     8   ar
    30    28    23   ar
    31     3    15    1
@<TRIPOS>MOLECULE
*****
 28 31 0 0 0
SMALL
GASTEIGER

@<TRIPOS>ATOM
      1 O         142.5725  141.8181  161.7126 O.2     1  UNL1       -0.2522
      2 C         141.6360  140.7476  161.2361 C.2     1  UNL1        0.3080
      3 N         141.6134  140.3617  159.7868 N.am    1  UNL1       -0.2681
      4 N         140.7221  140.0632  162.2089 N.am    1  UNL1       -0.2559
      5 C         139.8267  139.0086  161.6291 C.3     1  UNL1        0.1425
      6 C         138.8124  138.1541  162.3301 C.3     1  UNL1        0.2268
      7 O         138.4432  138.1432  163.7838 O.3     1  UNL1       -0.4739
      8 C         138.9969  138.9841  164.8958 C.ar    1  UNL1        0.1362
      9 C         138.3485  138.6541  166.2075 C.ar    1  UNL1        0.0366
     10 C         138.7598  139.3835  167.4520 C.ar    1  UNL1        0.0031
     11 C         139.8196  140.4430  167.3847 C.ar    1  UNL1        0.0000
     12 C         140.4680  140.7729  166.0729 C.ar    1  UNL1        0.0004
     13 C         140.0567  140.0435  164.8285 C.ar    1  UNL1        0.0317
     14 C         140.8245  140.5237  163.6327 C.3     1  UNL1        0.1248
     15 H         140.9987  139.6591  159.4740 H       1  UNL1        0.1564
     16 C         142.5273  141.0462  158.8140 C.ar    1  UNL1        0.0524
     17 C         143.8853  140.4752  158.5316 C.ar    1  UNL1        0.0148
     18 C         144.7992  141.1598  157.5588 C.ar    1  UNL1        0.0021
     19 C         144.3551  142.4152  156.8685 C.ar    1  UNL1        0.0115
     20 C         142.9971  142.9861  157.1509 C.ar    1  UNL1        0.0589
     21 CL        142.5529  144.2416  156.4605 Cl      1  UNL1       -0.0822
     22 C         142.0832  142.3016  158.1236 C.ar    1  UNL1        0.0261
     23 C         140.2309  141.1724  168.6292 C.ar    1  UNL1        0.0031
     24 C         140.4544  140.4140  169.9039 C.ar    1  UNL1        0.0207
     25 C         140.8657  141.1434  171.1483 C.ar    1  UNL1        0.0989
     26 N         141.0536  142.6314  171.1181 N.ar    1  UNL1       -0.2423
     27 C         140.8302  143.3898  169.8434 C.ar    1  UNL1        0.0989
     28 C         140.4188  142.6602  168.5989 C.ar    1  UNL1        0.0207
@<TRIPOS>BOND
     1     1     2    2
     2     2     3   am
     3     3    16    1
     4    16    17   ar
     5    17    18   ar
     6    18    19   ar
     7    19    20   ar
     8    20    21    1
     9    20    22   ar
    10     2     4   am
    11     4     5    1
    12     5     6    1
    13     6     7    1
    14     7     8    1
    15     8     9   ar
    16     9    10   ar
    17    10    11   ar
    18    11    23    1
    19    23    24   ar
    20    24    25   ar
    21    25    26   ar
    22    26    27   ar
    23    27    28   ar
    24    11    12   ar
    25    12    13   ar
    26    13    14    1
    27    22    16   ar
    28    14     4    1
    29    13     8   ar
    30    28    23   ar
    31     3    15    1
@<TRIPOS>MOLECULE
*****
 28 31 0 0 0
SMALL
GASTEIGER

@<TRIPOS>ATOM
      1 O         141.3593  138.1375  160.7055 O.2     1  UNL1       -0.2522
      2 C         142.3072  139.1899  160.2119 C.2     1  UNL1        0.3080
      3 N         142.6724  139.2480  158.7582 N.am    1  UNL1       -0.2681
      4 N         142.8900  140.1842  161.1720 N.am    1  UNL1       -0.2559
      5 C         143.8260  141.1933  160.5755 C.3     1  UNL1        0.1425
      6 C         144.5629  142.3054  161.2613 C.3     1  UNL1        0.2268
      7 O         144.5458  142.6830  162.7128 O.3     1  UNL1       -0.4739
      8 C         143.7877  142.0418  163.8372 C.ar    1  UNL1        0.1362
      9 C         144.0532  142.7332  165.1416 C.ar    1  UNL1        0.0366
     10 C         143.3904  142.2474  166.3965 C.ar    1  UNL1        0.0031
     11 C         142.4620  141.0702  166.3469 C.ar    1  UNL1        0.0000
     12 C         142.1965  140.3789  165.0424 C.ar    1  UNL1        0.0004
     13 C         142.8593  140.8647  163.7876 C.ar    1  UNL1        0.0317
     14 C         142.4599  140.0380  162.6014 C.3     1  UNL1        0.1248
     15 H         143.2946  139.9388  158.4342 H       1  UNL1        0.1564
     16 C         142.0896  138.2537  157.7981 C.ar    1  UNL1        0.0524
     17 C         140.7510  138.5112  157.1722 C.ar    1  UNL1        0.0148
     18 C         140.1683  137.5169  156.2121 C.ar    1  UNL1        0.0021
     19 C         140.9241  136.2650  155.8781 C.ar    1  UNL1        0.0115
     20 C         142.2626  136.0075  156.5041 C.ar    1  UNL1        0.0589
     21 CL        143.0184  134.7556  156.1700 Cl      1  UNL1       -0.0822
     22 C         142.8454  137.0018  157.4641 C.ar    1  UNL1        0.0261
     23 C         141.7992  140.5844  167.6017 C.ar    1  UNL1        0.0031
     24 C         142.6148  139.9233  168.6731 C.ar    1  UNL1        0.0207
     25 C         141.9520  139.4375  169.9279 C.ar    1  UNL1        0.0989
     26 N         140.4735  139.6127  170.1114 N.ar    1  UNL1       -0.2423
     27 C         139.6580  140.2738  169.0400 C.ar    1  UNL1        0.0989
     28 C         140.3209  140.7597  167.7852 C.ar    1  UNL1        0.0207
@<TRIPOS>BOND
     1     1     2    2
     2     2     3   am
     3     3    16    1
     4    16    17   ar
     5    17    18   ar
     6    18    19   ar
     7    19    20   ar
     8    20    21    1
     9    20    22   ar
    10     2     4   am
    11     4     5    1
    12     5     6    1
    13     6     7    1
    14     7     8    1
    15     8     9   ar
    16     9    10   ar
    17    10    11   ar
    18    11    23    1
    19    23    24   ar
    20    24    25   ar
    21    25    26   ar
    22    26    27   ar
    23    27    28   ar
    24    11    12   ar
    25    12    13   ar
    26    13    14    1
    27    22    16   ar
    28    14     4    1
    29    13     8   ar
    30    28    23   ar
    31     3    15    1
@<TRIPOS>MOLECULE
*****
 28 31 0 0 0
SMALL
GASTEIGER

@<TRIPOS>ATOM
      1 O         143.5418  141.5653  160.5898 O.2     1  UNL1       -0.2522
      2 C         142.7736  142.7309  160.0409 C.2     1  UNL1        0.3080
      3 N         142.9660  143.1509  158.6139 N.am    1  UNL1       -0.2681
      4 N         141.8130  143.4764  160.9192 N.am    1  UNL1       -0.2559
      5 C         141.0967  144.6247  160.2723 C.3     1  UNL1        0.1425
      6 C         140.0861  145.5554  160.8748 C.3     1  UNL1        0.2268
      7 O         139.5423  145.5674  162.2726 O.3     1  UNL1       -0.4739
      8 C         139.8747  144.6520  163.4134 C.ar    1  UNL1        0.1362
      9 C         139.1019  145.0116  164.6477 C.ar    1  UNL1        0.0366
     10 C         139.2874  144.2175  165.9067 C.ar    1  UNL1        0.0031
     11 C         140.2457  143.0638  165.9314 C.ar    1  UNL1        0.0000
     12 C         141.0186  142.7042  164.6970 C.ar    1  UNL1        0.0004
     13 C         140.8330  143.4983  163.4381 C.ar    1  UNL1        0.0317
     14 C         141.6956  142.9752  162.3280 C.3     1  UNL1        0.1248
     15 H         142.4618  143.9160  158.2537 H       1  UNL1        0.1564
     16 C         143.9267  142.4053  157.7356 C.ar    1  UNL1        0.0524
     17 C         143.4482  141.2415  156.9192 C.ar    1  UNL1        0.0148
     18 C         144.4089  140.4960  156.0410 C.ar    1  UNL1        0.0021
     19 C         145.8481  140.9143  155.9792 C.ar    1  UNL1        0.0115
     20 C         146.3265  142.0781  156.7956 C.ar    1  UNL1        0.0589
     21 CL        147.7658  142.4964  156.7338 Cl      1  UNL1       -0.0822
     22 C         145.3659  142.8236  157.6738 C.ar    1  UNL1        0.0261
     23 C         140.4313  142.2697  167.1903 C.ar    1  UNL1        0.0031
     24 C         140.4610  140.7710  167.1342 C.ar    1  UNL1        0.0207
     25 C         140.6466  139.9769  168.3931 C.ar    1  UNL1        0.0989
     26 N         140.8024  140.6815  169.7082 N.ar    1  UNL1       -0.2423
     27 C         140.7726  142.1801  169.7643 C.ar    1  UNL1        0.0989
     28 C         140.5871  142.9742  168.5053 C.ar    1  UNL1        0.0207
@<TRIPOS>BOND
     1     1     2    2
     2     2     3   am
     3     3    16    1
     4    16    17   ar
     5    17    18   ar
     6    18    19   ar
     7    19    20   ar
     8    20    21    1
     9    20    22   ar
    10     2     4   am
    11     4     5    1
    12     5     6    1
    13     6     7    1
    14     7     8    1
    15     8     9   ar
    16     9    10   ar
    17    10    11   ar
    18    11    23    1
    19    23    24   ar
    20    24    25   ar
    21    25    26   ar
    22    26    27   ar
    23    27    28   ar
    24    11    12   ar
    25    12    13   ar
    26    13    14    1
    27    22    16   ar
    28    14     4    1
    29    13     8   ar
    30    28    23   ar
    31     3    15    1
@<TRIPOS>MOLECULE
*****
 28 31 0 0 0
SMALL
GASTEIGER

@<TRIPOS>ATOM
      1 O         139.4584  142.3733  161.2351 O.2     1  UNL1       -0.2522
      2 C         140.0652  141.0553  160.8546 C.2     1  UNL1        0.3080
      3 N         139.9137  140.5359  159.4556 N.am    1  UNL1       -0.2681
      4 N         140.8234  140.2568  161.8731 N.am    1  UNL1       -0.2559
      5 C         141.3892  138.9545  161.3893 C.3     1  UNL1        0.1425
      6 C         142.1869  137.9398  162.1537 C.3     1  UNL1        0.2268
      7 O         142.6158  137.9769  163.5905 O.3     1  UNL1       -0.4739
      8 C         142.3529  139.0377  164.6180 C.ar    1  UNL1        0.1362
      9 C         142.9627  138.6819  165.9414 C.ar    1  UNL1        0.0366
     10 C         142.8158  139.6118  167.1092 C.ar    1  UNL1        0.0031
     11 C         142.0591  140.8976  166.9535 C.ar    1  UNL1        0.0000
     12 C         141.4494  141.2534  165.6300 C.ar    1  UNL1        0.0004
     13 C         141.5963  140.3235  164.4623 C.ar    1  UNL1        0.0317
     14 C         140.9156  140.8660  163.2406 C.3     1  UNL1        0.1248
     15 H         140.3119  139.6709  159.2058 H       1  UNL1        0.1564
     16 C         139.1555  141.3346  158.4370 C.ar    1  UNL1        0.0524
     17 C         137.8235  140.8511  157.9450 C.ar    1  UNL1        0.0148
     18 C         137.0653  141.6498  156.9265 C.ar    1  UNL1        0.0021
     19 C         137.6391  142.9318  156.4000 C.ar    1  UNL1        0.0115
     20 C         138.9711  143.4151  156.8920 C.ar    1  UNL1        0.0589
     21 CL        139.5449  144.6972  156.3655 Cl      1  UNL1       -0.0822
     22 C         139.7292  142.6166  157.9105 C.ar    1  UNL1        0.0261
     23 C         141.9122  141.8275  168.1212 C.ar    1  UNL1        0.0031
     24 C         140.6411  142.6015  168.3083 C.ar    1  UNL1        0.0207
     25 C         140.4942  143.5314  169.4760 C.ar    1  UNL1        0.0989
     26 N         141.6185  143.6874  170.4568 N.ar    1  UNL1       -0.2423
     27 C         142.8896  142.9133  170.2697 C.ar    1  UNL1        0.0989
     28 C         143.0365  141.9834  169.1019 C.ar    1  UNL1        0.0207
@<TRIPOS>BOND
     1     1     2    2
     2     2     3   am
     3     3    16    1
     4    16    17   ar
     5    17    18   ar
     6    18    19   ar
     7    19    20   ar
     8    20    21    1
     9    20    22   ar
    10     2     4   am
    11     4     5    1
    12     5     6    1
    13     6     7    1
    14     7     8    1
    15     8     9   ar
    16     9    10   ar
    17    10    11   ar
    18    11    23    1
    19    23    24   ar
    20    24    25   ar
    21    25    26   ar
    22    26    27   ar
    23    27    28   ar
    24    11    12   ar
    25    12    13   ar
    26    13    14    1
    27    22    16   ar
    28    14     4    1
    29    13     8   ar
    30    28    23   ar
    31     3    15    1
@<TRIPOS>MOLECULE
*****
 28 31 0 0 0
SMALL
GASTEIGER

@<TRIPOS>ATOM
      1 O         138.9725  141.9078  160.8150 O.2     1  UNL1       -0.2522
      2 C         140.3592  142.2907  160.3902 C.2     1  UNL1        0.3080
      3 N         140.6764  142.4653  158.9346 N.am    1  UNL1       -0.2681
      4 N         141.4287  142.4988  161.4211 N.am    1  UNL1       -0.2559
      5 C         142.7792  142.8792  160.8902 C.3     1  UNL1        0.1425
      6 C         144.0408  143.1538  161.6537 C.3     1  UNL1        0.2268
      7 O         144.2636  143.1159  163.1365 O.3     1  UNL1       -0.4739
      8 C         143.2799  142.7940  164.2222 C.ar    1  UNL1        0.1362
      9 C         143.9161  142.8702  165.5784 C.ar    1  UNL1        0.0366
     10 C         143.1028  142.5830  166.8057 C.ar    1  UNL1        0.0031
     11 C         141.6532  142.2196  166.6766 C.ar    1  UNL1        0.0000
     12 C         141.0170  142.1433  165.3203 C.ar    1  UNL1        0.0004
     13 C         141.8304  142.4306  164.0931 C.ar    1  UNL1        0.0317
     14 C         141.0066  142.2992  162.8465 C.3     1  UNL1        0.1248
     15 H         141.5866  142.7166  158.6558 H       1  UNL1        0.1564
     16 C         139.6068  142.2571  157.9037 C.ar    1  UNL1        0.0524
     17 C         139.1327  140.8703  157.5844 C.ar    1  UNL1        0.0148
     18 C         138.0631  140.6622  156.5535 C.ar    1  UNL1        0.0021
     19 C         137.4678  141.8408  155.8419 C.ar    1  UNL1        0.0115
     20 C         137.9419  143.2275  156.1612 C.ar    1  UNL1        0.0589
     21 CL        137.3465  144.4062  155.4496 Cl      1  UNL1       -0.0822
     22 C         139.0114  143.4357  157.1921 C.ar    1  UNL1        0.0261
     23 C         140.8399  141.9323  167.9037 C.ar    1  UNL1        0.0031
     24 C         140.7351  142.9598  168.9916 C.ar    1  UNL1        0.0207
     25 C         139.9218  142.6726  170.2187 C.ar    1  UNL1        0.0989
     26 N         139.2131  141.3578  170.3581 N.ar    1  UNL1       -0.2423
     27 C         139.3179  140.3303  169.2702 C.ar    1  UNL1        0.0989
     28 C         140.1313  140.6176  168.0431 C.ar    1  UNL1        0.0207
@<TRIPOS>BOND
     1     1     2    2
     2     2     3   am
     3     3    16    1
     4    16    17   ar
     5    17    18   ar
     6    18    19   ar
     7    19    20   ar
     8    20    21    1
     9    20    22   ar
    10     2     4   am
    11     4     5    1
    12     5     6    1
    13     6     7    1
    14     7     8    1
    15     8     9   ar
    16     9    10   ar
    17    10    11   ar
    18    11    23    1
    19    23    24   ar
    20    24    25   ar
    21    25    26   ar
    22    26    27   ar
    23    27    28   ar
    24    11    12   ar
    25    12    13   ar
    26    13    14    1
    27    22    16   ar
    28    14     4    1
    29    13     8   ar
    30    28    23   ar
    31     3    15    1
@<TRIPOS>MOLECULE
*****
 28 31 0 0 0
SMALL
GASTEIGER

@<TRIPOS>ATOM
      1 O         142.3055  141.5980  164.4760 O.2     1  UNL1       -0.2522
      2 C         141.2296  142.6393  164.5654 C.2     1  UNL1        0.3080
      3 N         140.5002  142.8551  165.8583 N.am    1  UNL1       -0.2681
      4 N         140.8830  143.4649  163.3620 N.am    1  UNL1       -0.2559
      5 C         139.7935  144.4771  163.5589 C.3     1  UNL1        0.1425
      6 C         139.2237  145.4435  162.5632 C.3     1  UNL1        0.2268
      7 O         139.6026  145.6364  161.1248 O.3     1  UNL1       -0.4739
      8 C         140.6448  144.9107  160.3267 C.ar    1  UNL1        0.1362
      9 C         140.7029  145.4140  158.9149 C.ar    1  UNL1        0.0366
     10 C         141.6819  144.8194  157.9463 C.ar    1  UNL1        0.0031
     11 C         142.6027  143.7214  158.3895 C.ar    1  UNL1        0.0000
     12 C         142.5445  143.2180  159.8014 C.ar    1  UNL1        0.0004
     13 C         141.5656  143.8126  160.7699 C.ar    1  UNL1        0.0317
     14 C         141.6716  143.1693  162.1208 C.3     1  UNL1        0.1248
     15 H         139.7941  143.5386  165.9170 H       1  UNL1        0.1564
     16 C         140.8469  142.0294  167.0618 C.ar    1  UNL1        0.0524
     17 C         139.9587  140.8926  167.4725 C.ar    1  UNL1        0.0148
     18 C         140.3053  140.0671  168.6759 C.ar    1  UNL1        0.0021
     19 C         141.5401  140.3783  169.4686 C.ar    1  UNL1        0.0115
     20 C         142.4282  141.5151  169.0579 C.ar    1  UNL1        0.0589
     21 CL        143.6631  141.8263  169.8506 Cl      1  UNL1       -0.0822
     22 C         142.0816  142.3407  167.8545 C.ar    1  UNL1        0.0261
     23 C         143.5816  143.1268  157.4210 C.ar    1  UNL1        0.0031
     24 C         143.3073  143.1835  155.9474 C.ar    1  UNL1        0.0207
     25 C         144.2863  142.5889  154.9789 C.ar    1  UNL1        0.0989
     26 N         145.5396  141.9375  155.4840 N.ar    1  UNL1       -0.2423
     27 C         145.8138  141.8808  156.9576 C.ar    1  UNL1        0.0989
     28 C         144.8348  142.4754  157.9261 C.ar    1  UNL1        0.0207
@<TRIPOS>BOND
     1     1     2    2
     2     2     3   am
     3     3    16    1
     4    16    17   ar
     5    17    18   ar
     6    18    19   ar
     7    19    20   ar
     8    20    21    1
     9    20    22   ar
    10     2     4   am
    11     4     5    1
    12     5     6    1
    13     6     7    1
    14     7     8    1
    15     8     9   ar
    16     9    10   ar
    17    10    11   ar
    18    11    23    1
    19    23    24   ar
    20    24    25   ar
    21    25    26   ar
    22    26    27   ar
    23    27    28   ar
    24    11    12   ar
    25    12    13   ar
    26    13    14    1
    27    22    16   ar
    28    14     4    1
    29    13     8   ar
    30    28    23   ar
    31     3    15    1
@<TRIPOS>MOLECULE
*****
 28 31 0 0 0
SMALL
GASTEIGER

@<TRIPOS>ATOM
      1 O         140.3515  142.6958  161.6276 O.2     1  UNL1       -0.2522
      2 C         141.4039  141.7685  161.0961 C.2     1  UNL1        0.3080
      3 N         141.7247  141.7591  159.6309 N.am    1  UNL1       -0.2681
      4 N         142.1356  140.8506  162.0300 N.am    1  UNL1       -0.2559
      5 C         143.1674  139.9651  161.3964 C.3     1  UNL1        0.1425
      6 C         144.0572  138.9498  162.0504 C.3     1  UNL1        0.2268
      7 O         144.1350  138.5694  163.4991 O.3     1  UNL1       -0.4739
      8 C         143.3422  139.1102  164.6520 C.ar    1  UNL1        0.1362
      9 C         143.7337  138.4533  165.9424 C.ar    1  UNL1        0.0366
     10 C         143.0588  138.8513  167.2216 C.ar    1  UNL1        0.0031
     11 C         141.9924  139.9061  167.2103 C.ar    1  UNL1        0.0000
     12 C         141.6010  140.5630  165.9198 C.ar    1  UNL1        0.0004
     13 C         142.2758  140.1650  164.6407 C.ar    1  UNL1        0.0317
     14 C         141.7389  140.9396  163.4737 C.3     1  UNL1        0.1248
     15 H         142.4154  141.1505  159.2821 H       1  UNL1        0.1564
     16 C         140.9929  142.6771  158.6970 C.ar    1  UNL1        0.0524
     17 C         139.6256  142.3091  158.2021 C.ar    1  UNL1        0.0148
     18 C         138.8939  143.2271  157.2682 C.ar    1  UNL1        0.0021
     19 C         139.5296  144.5129  156.8294 C.ar    1  UNL1        0.0115
     20 C         140.8969  144.8807  157.3243 C.ar    1  UNL1        0.0589
     21 CL        141.5326  146.1666  156.8854 Cl      1  UNL1       -0.0822
     22 C         141.6286  143.9629  158.2581 C.ar    1  UNL1        0.0261
     23 C         141.3176  140.3041  168.4894 C.ar    1  UNL1        0.0031
     24 C         142.1350  140.7940  169.6477 C.ar    1  UNL1        0.0207
     25 C         141.4601  141.1920  170.9268 C.ar    1  UNL1        0.0989
     26 N         139.9678  141.1000  171.0476 N.ar    1  UNL1       -0.2423
     27 C         139.1504  140.6101  169.8893 C.ar    1  UNL1        0.0989
     28 C         139.8253  140.2121  168.6101 C.ar    1  UNL1        0.0207
@<TRIPOS>BOND
     1     1     2    2
     2     2     3   am
     3     3    16    1
     4    16    17   ar
     5    17    18   ar
     6    18    19   ar
     7    19    20   ar
     8    20    21    1
     9    20    22   ar
    10     2     4   am
    11     4     5    1
    12     5     6    1
    13     6     7    1
    14     7     8    1
    15     8     9   ar
    16     9    10   ar
    17    10    11   ar
    18    11    23    1
    19    23    24   ar
    20    24    25   ar
    21    25    26   ar
    22    26    27   ar
    23    27    28   ar
    24    11    12   ar
    25    12    13   ar
    26    13    14    1
    27    22    16   ar
    28    14     4    1
    29    13     8   ar
    30    28    23   ar
    31     3    15    1
