@<TRIPOS>MOLECULE
*****
 32 36 0 0 0
SMALL
GASTEIGER

@<TRIPOS>ATOM
      1 C         142.8115  138.9151  158.3528 C.2     1  UNL1        0.3047
      2 O         142.7298  140.2336  157.6423 O.2     1  UNL1       -0.2647
      3 N         143.1653  138.8688  159.8098 N.am    1  UNL1       -0.2647
      4 C         143.3377  137.7784  160.8252 C.3     1  UNL1        0.1391
      5 C         143.6657  138.8034  161.8702 C.3     1  UNL1        0.2052
      6 C         143.4933  139.8938  160.8547 C.3     1  UNL1        0.1391
      7 C         142.7775  135.4079  156.6903 C.ar    1  UNL1        0.2501
      8 N         141.4636  135.9620  156.2249 N.ar    1  UNL1       -0.1068
      9 N         141.3164  137.3433  156.7910 N.ar    1  UNL1       -0.1021
     10 C         142.5393  137.6428  157.6063 C.ar    1  UNL1        0.3043
     11 O         143.4423  136.4467  157.5441 O.2     1  UNL1       -0.4122
     12 C         144.4339  131.3429  155.6992 C.ar    1  UNL1        0.1387
     13 C         144.8332  132.0251  156.9740 C.ar    1  UNL1        0.0371
     14 C         144.2811  133.3801  157.3043 C.ar    1  UNL1        0.0078
     15 C         143.3296  134.0529  156.3599 C.ar    1  UNL1        0.0553
     16 C         142.9303  133.3707  155.0851 C.ar    1  UNL1        0.0078
     17 C         143.4824  132.0157  154.7548 C.ar    1  UNL1        0.0371
     18 C         144.5733  128.7927  156.1759 C.3     1  UNL1        0.2525
     19 O         144.9860  129.9879  155.3689 O.3     1  UNL1       -0.4714
     20 O         144.0195  138.7571  163.3270 O.3     1  UNL1       -0.4756
     21 C         142.9732  139.0459  164.3625 C.ar    1  UNL1        0.1385
     22 C         143.3532  139.1237  165.8114 C.ar    1  UNL1        0.0366
     23 C         142.3070  139.4124  166.8467 C.ar    1  UNL1        0.0002
     24 C         140.8806  139.6234  166.4332 C.ar    1  UNL1       -0.0059
     25 C         140.5006  139.5455  164.9842 C.ar    1  UNL1        0.0002
     26 C         141.5469  139.2568  163.9488 C.ar    1  UNL1        0.0366
     27 C         139.8344  139.9121  167.4685 C.3     1  UNL1        0.0991
     28 N         139.9803  141.1014  168.3708 N.3     1  UNL1       -0.2690
     29 C         140.5190  142.4452  167.9782 C.3     1  UNL1        0.0724
     30 C         140.4848  143.3301  169.1888 C.3     1  UNL1        0.0188
     31 C         139.9249  142.5333  170.3297 C.3     1  UNL1        0.0188
     32 C         139.6131  141.1559  169.8241 C.3     1  UNL1        0.0724
@<TRIPOS>BOND
     1    18    19    1
     2    19    12    1
     3    12    13   ar
     4    13    14   ar
     5    14    15   ar
     6    15     7    1
     7     7     8   ar
     8     8     9   ar
     9     9    10   ar
    10    10     1    1
    11     1     2    2
    12     1     3   am
    13     3     4    1
    14     4     5    1
    15     5    20    1
    16    20    21    1
    17    21    22   ar
    18    22    23   ar
    19    23    24   ar
    20    24    27    1
    21    27    28    1
    22    28    29    1
    23    29    30    1
    24    30    31    1
    25    31    32    1
    26    24    25   ar
    27    25    26   ar
    28     5     6    1
    29    10    11   ar
    30    15    16   ar
    31    16    17   ar
    32    17    12   ar
    33    11     7   ar
    34     6     3    1
    35    26    21   ar
    36    32    28    1
@<TRIPOS>MOLECULE
*****
 32 36 0 0 0
SMALL
GASTEIGER

@<TRIPOS>ATOM
      1 C         142.4704  139.5640  158.1409 C.2     1  UNL1        0.3047
      2 O         143.2672  140.8323  158.0616 O.2     1  UNL1       -0.2647
      3 N         141.2170  139.5158  158.9635 N.am    1  UNL1       -0.2647
      4 C         140.1918  138.4658  159.2741 C.3     1  UNL1        0.1391
      5 C         139.4444  139.4478  160.1269 C.3     1  UNL1        0.2052
      6 C         140.4696  140.4978  159.8163 C.3     1  UNL1        0.1391
      7 C         143.1523  136.0453  156.6510 C.ar    1  UNL1        0.2501
      8 N         144.1069  136.8865  155.8566 N.ar    1  UNL1       -0.1068
      9 N         143.9677  138.3070  156.3180 N.ar    1  UNL1       -0.1021
     10 C         142.9270  138.3437  157.3976 C.ar    1  UNL1        0.3043
     11 O         142.4230  136.9460  157.6034 O.2     1  UNL1       -0.4122
     12 C         142.5770  131.6005  156.2478 C.ar    1  UNL1        0.1387
     13 C         143.6344  132.1398  157.1649 C.ar    1  UNL1        0.0371
     14 C         143.8261  133.6214  157.2993 C.ar    1  UNL1        0.0078
     15 C         142.9605  134.5637  156.5166 C.ar    1  UNL1        0.0553
     16 C         141.9031  134.0245  155.5995 C.ar    1  UNL1        0.0078
     17 C         141.7114  132.5428  155.4651 C.ar    1  UNL1        0.0371
     18 C         143.1854  129.1788  156.9653 C.3     1  UNL1        0.2525
     19 O         142.3852  130.1189  156.1134 O.3     1  UNL1       -0.4714
     20 O         138.1911  139.3997  160.9494 O.3     1  UNL1       -0.4756
     21 C         138.2780  139.3163  162.4447 C.ar    1  UNL1        0.1385
     22 C         138.7135  138.0396  163.1006 C.ar    1  UNL1        0.0366
     23 C         138.8004  137.9563  164.5958 C.ar    1  UNL1        0.0002
     24 C         138.4518  139.1497  165.4350 C.ar    1  UNL1       -0.0059
     25 C         138.0163  140.4263  164.7790 C.ar    1  UNL1        0.0002
     26 C         137.9293  140.5097  163.2838 C.ar    1  UNL1        0.0366
     27 C         138.5387  139.0663  166.9301 C.3     1  UNL1        0.0991
     28 N         139.6543  139.7578  167.6562 N.3     1  UNL1       -0.2690
     29 C         141.0677  139.8970  167.1735 C.3     1  UNL1        0.0724
     30 C         141.8394  140.6567  168.2114 C.3     1  UNL1        0.0188
     31 C         140.9030  140.9870  169.3356 C.3     1  UNL1        0.0188
     32 C         139.5525  140.4315  168.9925 C.3     1  UNL1        0.0724
@<TRIPOS>BOND
     1    18    19    1
     2    19    12    1
     3    12    13   ar
     4    13    14   ar
     5    14    15   ar
     6    15     7    1
     7     7     8   ar
     8     8     9   ar
     9     9    10   ar
    10    10     1    1
    11     1     2    2
    12     1     3   am
    13     3     4    1
    14     4     5    1
    15     5    20    1
    16    20    21    1
    17    21    22   ar
    18    22    23   ar
    19    23    24   ar
    20    24    27    1
    21    27    28    1
    22    28    29    1
    23    29    30    1
    24    30    31    1
    25    31    32    1
    26    24    25   ar
    27    25    26   ar
    28     5     6    1
    29    10    11   ar
    30    15    16   ar
    31    16    17   ar
    32    17    12   ar
    33    11     7   ar
    34     6     3    1
    35    26    21   ar
    36    32    28    1
@<TRIPOS>MOLECULE
*****
 32 36 0 0 0
SMALL
GASTEIGER

@<TRIPOS>ATOM
      1 C         139.1938  138.6459  161.2277 C.2     1  UNL1        0.3047
      2 O         137.7404  139.0167  161.2162 O.2     1  UNL1       -0.2647
      3 N         139.9498  138.5351  159.9369 N.am    1  UNL1       -0.2647
      4 C         141.3624  138.1993  159.5606 C.3     1  UNL1        0.1391
      5 C         141.0189  138.3785  158.1114 C.3     1  UNL1        0.2052
      6 C         139.6063  138.7143  158.4878 C.3     1  UNL1        0.1391
      7 C         140.7022  138.6349  164.8040 C.ar    1  UNL1        0.2501
      8 N         141.2264  137.3372  164.2643 N.ar    1  UNL1       -0.1068
      9 N         140.7251  137.1833  162.8589 N.ar    1  UNL1       -0.1021
     10 C         139.8911  138.3860  162.5300 C.ar    1  UNL1        0.3043
     11 O         139.8770  139.2830  163.7321 O.2     1  UNL1       -0.4122
     12 C         141.4705  140.2923  168.9165 C.ar    1  UNL1        0.1387
     13 C         140.0808  140.3010  168.3519 C.ar    1  UNL1        0.0371
     14 C         139.8247  139.7485  166.9811 C.ar    1  UNL1        0.0078
     15 C         140.9583  139.1874  166.1748 C.ar    1  UNL1        0.0553
     16 C         142.3479  139.1787  166.7394 C.ar    1  UNL1        0.0078
     17 C         142.6040  139.7312  168.1102 C.ar    1  UNL1        0.0371
     18 C         140.8471  141.9294  170.8352 C.3     1  UNL1        0.2525
     19 O         141.7266  140.8448  170.2873 O.3     1  UNL1       -0.4714
     20 O         141.7749  138.2677  156.8207 O.3     1  UNL1       -0.4756
     21 C         142.0857  136.9169  156.2471 C.ar    1  UNL1        0.1385
     22 C         143.4816  136.3731  156.3227 C.ar    1  UNL1        0.0366
     23 C         143.7924  135.0224  155.7492 C.ar    1  UNL1        0.0002
     24 C         142.7073  134.2154  155.1000 C.ar    1  UNL1       -0.0059
     25 C         141.3114  134.7592  155.0244 C.ar    1  UNL1        0.0002
     26 C         141.0006  136.1100  155.5979 C.ar    1  UNL1        0.0366
     27 C         143.0181  132.8647  154.5265 C.3     1  UNL1        0.0991
     28 N         143.4347  131.7435  155.4315 N.3     1  UNL1       -0.2690
     29 C         142.9354  131.5036  156.8255 C.3     1  UNL1        0.0724
     30 C         143.6159  130.2771  157.3571 C.3     1  UNL1        0.0188
     31 C         144.5358  129.7589  156.2916 C.3     1  UNL1        0.0188
     32 C         144.4239  130.6651  155.1015 C.3     1  UNL1        0.0724
@<TRIPOS>BOND
     1    18    19    1
     2    19    12    1
     3    12    13   ar
     4    13    14   ar
     5    14    15   ar
     6    15     7    1
     7     7     8   ar
     8     8     9   ar
     9     9    10   ar
    10    10     1    1
    11     1     2    2
    12     1     3   am
    13     3     4    1
    14     4     5    1
    15     5    20    1
    16    20    21    1
    17    21    22   ar
    18    22    23   ar
    19    23    24   ar
    20    24    27    1
    21    27    28    1
    22    28    29    1
    23    29    30    1
    24    30    31    1
    25    31    32    1
    26    24    25   ar
    27    25    26   ar
    28     5     6    1
    29    10    11   ar
    30    15    16   ar
    31    16    17   ar
    32    17    12   ar
    33    11     7   ar
    34     6     3    1
    35    26    21   ar
    36    32    28    1
@<TRIPOS>MOLECULE
*****
 32 36 0 0 0
SMALL
GASTEIGER

@<TRIPOS>ATOM
      1 C         139.9775  138.5816  160.9229 C.2     1  UNL1        0.3047
      2 O         138.6149  139.1276  160.6147 O.2     1  UNL1       -0.2647
      3 N         140.9421  138.2996  159.8093 N.am    1  UNL1       -0.2647
      4 C         142.3429  137.7695  159.7282 C.3     1  UNL1        0.1391
      5 C         142.3061  137.9010  158.2344 C.3     1  UNL1        0.2052
      6 C         140.9053  138.4311  158.3155 C.3     1  UNL1        0.1391
      7 C         140.7964  138.6124  164.7169 C.ar    1  UNL1        0.2501
      8 N         141.1798  137.2097  164.3490 N.ar    1  UNL1       -0.1068
      9 N         140.9198  137.0274  162.8830 N.ar    1  UNL1       -0.1021
     10 C         140.3756  138.3174  162.3448 C.ar    1  UNL1        0.3043
     11 O         140.2994  139.2970  163.4782 O.2     1  UNL1       -0.4122
     12 C         141.0864  140.4449  168.8166 C.ar    1  UNL1        0.1387
     13 C         139.7508  140.3131  168.1468 C.ar    1  UNL1        0.0371
     14 C         139.6541  139.7023  166.7802 C.ar    1  UNL1        0.0078
     15 C         140.8931  139.2232  166.0835 C.ar    1  UNL1        0.0553
     16 C         142.2287  139.3550  166.7533 C.ar    1  UNL1        0.0078
     17 C         142.3253  139.9658  168.1199 C.ar    1  UNL1        0.0371
     18 C         140.4435  142.3237  170.4920 C.3     1  UNL1        0.2525
     19 O         141.1830  141.0557  170.1832 O.3     1  UNL1       -0.4714
     20 O         143.2706  137.6190  157.1208 O.3     1  UNL1       -0.4756
     21 C         143.2086  136.3117  156.3878 C.ar    1  UNL1        0.1385
     22 C         143.5636  135.0376  157.0952 C.ar    1  UNL1        0.0366
     23 C         143.5015  133.7304  156.3622 C.ar    1  UNL1        0.0002
     24 C         143.0845  133.6973  154.9217 C.ar    1  UNL1       -0.0059
     25 C         142.7295  134.9714  154.2143 C.ar    1  UNL1        0.0002
     26 C         142.7916  136.2787  154.9473 C.ar    1  UNL1        0.0366
     27 C         143.0224  132.3901  154.1887 C.3     1  UNL1        0.0991
     28 N         141.7137  131.6708  154.0476 N.3     1  UNL1       -0.2690
     29 C         140.7742  131.7701  152.8825 C.3     1  UNL1        0.0724
     30 C         139.5946  130.8866  153.1616 C.3     1  UNL1        0.0188
     31 C         139.8051  130.2412  154.4991 C.3     1  UNL1        0.0188
     32 C         141.1148  130.7258  155.0467 C.3     1  UNL1        0.0724
@<TRIPOS>BOND
     1    18    19    1
     2    19    12    1
     3    12    13   ar
     4    13    14   ar
     5    14    15   ar
     6    15     7    1
     7     7     8   ar
     8     8     9   ar
     9     9    10   ar
    10    10     1    1
    11     1     2    2
    12     1     3   am
    13     3     4    1
    14     4     5    1
    15     5    20    1
    16    20    21    1
    17    21    22   ar
    18    22    23   ar
    19    23    24   ar
    20    24    27    1
    21    27    28    1
    22    28    29    1
    23    29    30    1
    24    30    31    1
    25    31    32    1
    26    24    25   ar
    27    25    26   ar
    28     5     6    1
    29    10    11   ar
    30    15    16   ar
    31    16    17   ar
    32    17    12   ar
    33    11     7   ar
    34     6     3    1
    35    26    21   ar
    36    32    28    1
@<TRIPOS>MOLECULE
*****
 32 36 0 0 0
SMALL
GASTEIGER

@<TRIPOS>ATOM
      1 C         141.3972  138.0162  157.8811 C.2     1  UNL1        0.3047
      2 O         140.1040  138.7455  157.6677 O.2     1  UNL1       -0.2647
      3 N         141.8095  136.9277  156.9349 N.am    1  UNL1       -0.2647
      4 C         142.9886  136.0070  156.8264 C.3     1  UNL1        0.1391
      5 C         142.3925  135.3885  155.5967 C.3     1  UNL1        0.2052
      6 C         141.2134  136.3093  155.7052 C.3     1  UNL1        0.1391
      7 C         143.1123  138.6730  161.3006 C.ar    1  UNL1        0.2501
      8 N         144.1552  139.1826  160.3506 N.ar    1  UNL1       -0.1068
      9 N         143.6398  138.9985  158.9540 N.ar    1  UNL1       -0.1021
     10 C         142.2782  138.3752  159.0409 C.ar    1  UNL1        0.3043
     11 O         141.9522  138.1741  160.4911 O.2     1  UNL1       -0.4122
     12 C         143.4111  138.6460  165.7906 C.ar    1  UNL1        0.1387
     13 C         142.2051  138.0630  165.1157 C.ar    1  UNL1        0.0371
     14 C         142.1054  138.0721  163.6190 C.ar    1  UNL1        0.0078
     15 C         143.2119  138.6640  162.7973 C.ar    1  UNL1        0.0553
     16 C         144.4180  139.2469  163.4722 C.ar    1  UNL1        0.0078
     17 C         144.5176  139.2379  164.9688 C.ar    1  UNL1        0.0371
     18 C         142.5662  139.4652  168.1068 C.3     1  UNL1        0.2525
     19 O         143.5108  138.6369  167.2872 O.3     1  UNL1       -0.4714
     20 O         142.8047  134.3001  154.6505 O.3     1  UNL1       -0.4756
     21 C         142.9153  132.8854  155.1370 C.ar    1  UNL1        0.1385
     22 C         141.8006  131.9150  154.8810 C.ar    1  UNL1        0.0366
     23 C         141.9111  130.5004  155.3674 C.ar    1  UNL1        0.0002
     24 C         143.1365  130.0562  156.1099 C.ar    1  UNL1       -0.0059
     25 C         144.2512  131.0266  156.3659 C.ar    1  UNL1        0.0002
     26 C         144.1406  132.4413  155.8794 C.ar    1  UNL1        0.0366
     27 C         143.2470  128.6416  156.5964 C.3     1  UNL1        0.0991
     28 N         143.8598  128.3546  157.9351 N.3     1  UNL1       -0.2690
     29 C         145.2100  127.7465  158.1745 C.3     1  UNL1        0.0724
     30 C         145.4148  127.6414  159.6568 C.3     1  UNL1        0.0188
     31 C         144.1912  128.1846  160.3333 C.3     1  UNL1        0.0188
     32 C         143.2302  128.6254  159.2693 C.3     1  UNL1        0.0724
@<TRIPOS>BOND
     1    18    19    1
     2    19    12    1
     3    12    13   ar
     4    13    14   ar
     5    14    15   ar
     6    15     7    1
     7     7     8   ar
     8     8     9   ar
     9     9    10   ar
    10    10     1    1
    11     1     2    2
    12     1     3   am
    13     3     4    1
    14     4     5    1
    15     5    20    1
    16    20    21    1
    17    21    22   ar
    18    22    23   ar
    19    23    24   ar
    20    24    27    1
    21    27    28    1
    22    28    29    1
    23    29    30    1
    24    30    31    1
    25    31    32    1
    26    24    25   ar
    27    25    26   ar
    28     5     6    1
    29    10    11   ar
    30    15    16   ar
    31    16    17   ar
    32    17    12   ar
    33    11     7   ar
    34     6     3    1
    35    26    21   ar
    36    32    28    1
@<TRIPOS>MOLECULE
*****
 32 36 0 0 0
SMALL
GASTEIGER

@<TRIPOS>ATOM
      1 C         143.4103  142.3032  158.3230 C.2     1  UNL1        0.3047
      2 O         142.0385  142.5398  157.7643 O.2     1  UNL1       -0.2647
      3 N         143.6883  142.5792  159.7709 N.am    1  UNL1       -0.2647
      4 C         144.8915  142.4685  160.6597 C.3     1  UNL1        0.1391
      5 C         144.0815  142.9697  161.8186 C.3     1  UNL1        0.2052
      6 C         142.8783  143.0804  160.9297 C.3     1  UNL1        0.1391
      7 C         146.4410  141.7012  155.9739 C.ar    1  UNL1        0.2501
      8 N         145.9333  140.3016  156.1566 N.ar    1  UNL1       -0.1068
      9 N         144.7362  140.3567  157.0588 N.ar    1  UNL1       -0.1021
     10 C         144.5040  141.7904  157.4337 C.ar    1  UNL1        0.3043
     11 O         145.5576  142.6213  156.7633 O.2     1  UNL1       -0.4122
     12 C         149.9908  142.9248  153.4936 C.ar    1  UNL1        0.1387
     13 C         150.1533  141.9103  154.5864 C.ar    1  UNL1        0.0371
     14 C         148.9700  141.5024  155.4132 C.ar    1  UNL1        0.0078
     15 C         147.6242  142.1091  155.1472 C.ar    1  UNL1        0.0553
     16 C         147.4617  143.1236  154.0544 C.ar    1  UNL1        0.0078
     17 C         148.6450  143.5315  153.2276 C.ar    1  UNL1        0.0371
     18 C         152.1624  144.3223  153.2089 C.3     1  UNL1        0.2525
     19 O         151.1740  143.3327  152.6669 O.3     1  UNL1       -0.4714
     20 O         144.3595  143.2458  163.2664 O.3     1  UNL1       -0.4756
     21 C         143.8595  142.3016  164.3194 C.ar    1  UNL1        0.1385
     22 C         144.1513  140.8344  164.2109 C.ar    1  UNL1        0.0366
     23 C         143.6513  139.8903  165.2639 C.ar    1  UNL1        0.0002
     24 C         142.8595  140.4136  166.4255 C.ar    1  UNL1       -0.0059
     25 C         142.5677  141.8809  166.5340 C.ar    1  UNL1        0.0002
     26 C         143.0677  142.8250  165.4810 C.ar    1  UNL1        0.0366
     27 C         142.3595  139.4696  167.4785 C.3     1  UNL1        0.0991
     28 N         141.3780  139.9460  168.5079 N.3     1  UNL1       -0.2690
     29 C         139.8892  140.0176  168.3400 C.3     1  UNL1        0.0724
     30 C         139.3040  140.5504  169.6143 C.3     1  UNL1        0.0188
     31 C         140.4313  140.8080  170.5697 C.3     1  UNL1        0.0188
     32 C         141.7131  140.4345  169.8860 C.3     1  UNL1        0.0724
@<TRIPOS>BOND
     1    18    19    1
     2    19    12    1
     3    12    13   ar
     4    13    14   ar
     5    14    15   ar
     6    15     7    1
     7     7     8   ar
     8     8     9   ar
     9     9    10   ar
    10    10     1    1
    11     1     2    2
    12     1     3   am
    13     3     4    1
    14     4     5    1
    15     5    20    1
    16    20    21    1
    17    21    22   ar
    18    22    23   ar
    19    23    24   ar
    20    24    27    1
    21    27    28    1
    22    28    29    1
    23    29    30    1
    24    30    31    1
    25    31    32    1
    26    24    25   ar
    27    25    26   ar
    28     5     6    1
    29    10    11   ar
    30    15    16   ar
    31    16    17   ar
    32    17    12   ar
    33    11     7   ar
    34     6     3    1
    35    26    21   ar
    36    32    28    1
@<TRIPOS>MOLECULE
*****
 32 36 0 0 0
SMALL
GASTEIGER

@<TRIPOS>ATOM
      1 C         142.9034  138.2577  156.8526 C.2     1  UNL1        0.3047
      2 O         143.9851  139.2670  156.6053 O.2     1  UNL1       -0.2647
      3 N         141.6608  138.6561  157.5923 N.am    1  UNL1       -0.2647
      4 C         140.4062  137.9511  158.0153 C.3     1  UNL1        0.1391
      5 C         139.9035  139.2196  158.6385 C.3     1  UNL1        0.2052
      6 C         141.1581  139.9246  158.2156 C.3     1  UNL1        0.1391
      7 C         143.4198  134.4497  156.3065 C.ar    1  UNL1        0.2501
      8 N         143.2037  134.9179  154.8979 N.ar    1  UNL1       -0.1068
      9 N         142.9839  136.4013  154.9310 N.ar    1  UNL1       -0.1021
     10 C         143.0642  136.8500  156.3601 C.ar    1  UNL1        0.3043
     11 O         143.3336  135.6439  157.2102 O.2     1  UNL1       -0.4122
     12 C         144.1912  130.2077  157.5951 C.ar    1  UNL1        0.1387
     13 C         145.0791  131.3133  158.0840 C.ar    1  UNL1        0.0371
     14 C         144.8220  132.7273  157.6545 C.ar    1  UNL1        0.0078
     15 C         143.6769  133.0357  156.7361 C.ar    1  UNL1        0.0553
     16 C         142.7889  131.9301  156.2472 C.ar    1  UNL1        0.0078
     17 C         143.0460  130.5161  156.6767 C.ar    1  UNL1        0.0371
     18 C         143.9170  128.3004  159.3378 C.3     1  UNL1        0.2525
     19 O         144.4483  128.7937  158.0246 O.3     1  UNL1       -0.4714
     20 O         138.6610  139.6180  159.3782 O.3     1  UNL1       -0.4756
     21 C         138.5840  139.4398  160.8657 C.ar    1  UNL1        0.1385
     22 C         139.0125  138.1446  161.4891 C.ar    1  UNL1        0.0366
     23 C         138.9355  137.9665  162.9765 C.ar    1  UNL1        0.0002
     24 C         138.4300  139.0837  163.8405 C.ar    1  UNL1       -0.0059
     25 C         138.0015  140.3789  163.2171 C.ar    1  UNL1        0.0002
     26 C         138.0785  140.5570  161.7296 C.ar    1  UNL1        0.0366
     27 C         138.3530  138.9056  165.3279 C.3     1  UNL1        0.0991
     28 N         139.4996  139.3341  166.1949 N.3     1  UNL1       -0.2690
     29 C         139.3977  139.8525  167.5988 C.3     1  UNL1        0.0724
     30 C         140.7845  140.1583  168.0818 C.3     1  UNL1        0.0188
     31 C         141.7435  139.8289  166.9764 C.3     1  UNL1        0.0188
     32 C         140.9494  139.3195  165.8102 C.3     1  UNL1        0.0724
@<TRIPOS>BOND
     1    18    19    1
     2    19    12    1
     3    12    13   ar
     4    13    14   ar
     5    14    15   ar
     6    15     7    1
     7     7     8   ar
     8     8     9   ar
     9     9    10   ar
    10    10     1    1
    11     1     2    2
    12     1     3   am
    13     3     4    1
    14     4     5    1
    15     5    20    1
    16    20    21    1
    17    21    22   ar
    18    22    23   ar
    19    23    24   ar
    20    24    27    1
    21    27    28    1
    22    28    29    1
    23    29    30    1
    24    30    31    1
    25    31    32    1
    26    24    25   ar
    27    25    26   ar
    28     5     6    1
    29    10    11   ar
    30    15    16   ar
    31    16    17   ar
    32    17    12   ar
    33    11     7   ar
    34     6     3    1
    35    26    21   ar
    36    32    28    1
@<TRIPOS>MOLECULE
*****
 32 36 0 0 0
SMALL
GASTEIGER

@<TRIPOS>ATOM
      1 C         140.0059  139.5198  157.8023 C.2     1  UNL1        0.3047
      2 O         139.5015  140.6060  156.8992 O.2     1  UNL1       -0.2647
      3 N         139.3898  139.3232  159.1557 N.am    1  UNL1       -0.2647
      4 C         139.6176  138.3775  160.2975 C.3     1  UNL1        0.1391
      5 C         138.5185  139.0452  161.0698 C.3     1  UNL1        0.2052
      6 C         138.2908  139.9909  159.9279 C.3     1  UNL1        0.1391
      7 C         142.3705  136.6883  156.5952 C.ar    1  UNL1        0.2501
      8 N         143.3309  137.8335  156.7224 N.ar    1  UNL1       -0.1068
      9 N         142.5620  139.0336  157.1901 N.ar    1  UNL1       -0.1021
     10 C         141.1264  138.6301  157.3519 C.ar    1  UNL1        0.3043
     11 O         141.0081  137.1806  156.9842 O.2     1  UNL1       -0.4122
     12 C         143.3965  132.5096  155.2777 C.ar    1  UNL1        0.1387
     13 C         143.6538  132.9342  156.6931 C.ar    1  UNL1        0.0371
     14 C         143.3118  134.3271  157.1323 C.ar    1  UNL1        0.0078
     15 C         142.7125  135.2954  156.1560 C.ar    1  UNL1        0.0553
     16 C         142.4552  134.8708  154.7406 C.ar    1  UNL1        0.0078
     17 C         142.7972  133.4779  154.3015 C.ar    1  UNL1        0.0371
     18 C         144.7409  130.3116  155.6111 C.3     1  UNL1        0.2525
     19 O         143.7384  131.1167  154.8386 O.3     1  UNL1       -0.4714
     20 O         137.9024  138.8486  162.4231 O.3     1  UNL1       -0.4756
     21 C         138.4670  139.5632  163.6151 C.ar    1  UNL1        0.1385
     22 C         138.9815  140.9652  163.4749 C.ar    1  UNL1        0.0366
     23 C         139.5460  141.6797  164.6669 C.ar    1  UNL1        0.0002
     24 C         139.5959  140.9922  165.9991 C.ar    1  UNL1       -0.0059
     25 C         139.0814  139.5903  166.1394 C.ar    1  UNL1        0.0002
     26 C         138.5169  138.8757  164.9474 C.ar    1  UNL1        0.0366
     27 C         140.1604  141.7067  167.1911 C.3     1  UNL1        0.0991
     28 N         140.4429  140.9497  168.4549 N.3     1  UNL1       -0.2690
     29 C         139.5624  140.8998  169.6682 C.3     1  UNL1        0.0724
     30 C         140.2307  140.0290  170.6905 C.3     1  UNL1        0.0188
     31 C         141.5243  139.5407  170.1089 C.3     1  UNL1        0.0188
     32 C         141.6554  140.1098  168.7273 C.3     1  UNL1        0.0724
@<TRIPOS>BOND
     1    18    19    1
     2    19    12    1
     3    12    13   ar
     4    13    14   ar
     5    14    15   ar
     6    15     7    1
     7     7     8   ar
     8     8     9   ar
     9     9    10   ar
    10    10     1    1
    11     1     2    2
    12     1     3   am
    13     3     4    1
    14     4     5    1
    15     5    20    1
    16    20    21    1
    17    21    22   ar
    18    22    23   ar
    19    23    24   ar
    20    24    27    1
    21    27    28    1
    22    28    29    1
    23    29    30    1
    24    30    31    1
    25    31    32    1
    26    24    25   ar
    27    25    26   ar
    28     5     6    1
    29    10    11   ar
    30    15    16   ar
    31    16    17   ar
    32    17    12   ar
    33    11     7   ar
    34     6     3    1
    35    26    21   ar
    36    32    28    1
@<TRIPOS>MOLECULE
*****
 32 36 0 0 0
SMALL
GASTEIGER

@<TRIPOS>ATOM
      1 C         139.7250  140.8720  157.7371 C.2     1  UNL1        0.3047
      2 O         140.3784  142.0150  157.0184 O.2     1  UNL1       -0.2647
      3 N         139.0262  141.1084  159.0432 N.am    1  UNL1       -0.2647
      4 C         138.2839  140.2458  160.0203 C.3     1  UNL1        0.1391
      5 C         138.0381  141.4428  160.8903 C.3     1  UNL1        0.2052
      6 C         138.7804  142.3054  159.9131 C.3     1  UNL1        0.1391
      7 C         140.5648  137.3147  156.4308 C.ar    1  UNL1        0.2501
      8 N         139.1154  137.4248  156.0605 N.ar    1  UNL1       -0.1068
      9 N         138.6243  138.7707  156.5048 N.ar    1  UNL1       -0.1021
     10 C         139.7703  139.4925  157.1496 C.ar    1  UNL1        0.3043
     11 O         140.9695  138.5927  157.1039 O.2     1  UNL1       -0.4122
     12 C         143.2307  133.7727  155.6581 C.ar    1  UNL1        0.1387
     13 C         143.6461  134.8228  156.6453 C.ar    1  UNL1        0.0371
     14 C         142.7575  136.0035  156.9029 C.ar    1  UNL1        0.0078
     15 C         141.4534  136.1341  156.1733 C.ar    1  UNL1        0.0553
     16 C         141.0380  135.0839  155.1861 C.ar    1  UNL1        0.0078
     17 C         141.9266  133.9032  154.9285 C.ar    1  UNL1        0.0371
     18 C         143.5372  131.3182  154.8636 C.3     1  UNL1        0.2525
     19 O         144.1193  132.5920  155.4005 O.3     1  UNL1       -0.4714
     20 O         137.3394  141.6792  162.1963 O.3     1  UNL1       -0.4756
     21 C         138.0104  141.3042  163.4845 C.ar    1  UNL1        0.1385
     22 C         138.7160  142.3506  164.2950 C.ar    1  UNL1        0.0366
     23 C         139.3869  141.9756  165.5831 C.ar    1  UNL1        0.0002
     24 C         139.3522  140.5540  166.0607 C.ar    1  UNL1       -0.0059
     25 C         138.6466  139.5076  165.2502 C.ar    1  UNL1        0.0002
     26 C         137.9756  139.8826  163.9620 C.ar    1  UNL1        0.0366
     27 C         140.0231  140.1790  167.3488 C.3     1  UNL1        0.0991
     28 N         140.9492  141.1482  168.0219 N.3     1  UNL1       -0.2690
     29 C         140.5608  142.1715  169.0476 C.3     1  UNL1        0.0724
     30 C         141.7978  142.9199  169.4472 C.3     1  UNL1        0.0188
     31 C         142.9507  142.3592  168.6684 C.3     1  UNL1        0.0188
     32 C         142.4262  141.2642  167.7876 C.3     1  UNL1        0.0724
@<TRIPOS>BOND
     1    18    19    1
     2    19    12    1
     3    12    13   ar
     4    13    14   ar
     5    14    15   ar
     6    15     7    1
     7     7     8   ar
     8     8     9   ar
     9     9    10   ar
    10    10     1    1
    11     1     2    2
    12     1     3   am
    13     3     4    1
    14     4     5    1
    15     5    20    1
    16    20    21    1
    17    21    22   ar
    18    22    23   ar
    19    23    24   ar
    20    24    27    1
    21    27    28    1
    22    28    29    1
    23    29    30    1
    24    30    31    1
    25    31    32    1
    26    24    25   ar
    27    25    26   ar
    28     5     6    1
    29    10    11   ar
    30    15    16   ar
    31    16    17   ar
    32    17    12   ar
    33    11     7   ar
    34     6     3    1
    35    26    21   ar
    36    32    28    1
