@<TRIPOS>MOLECULE
*****
 33 36 0 0 0
SMALL
GASTEIGER

@<TRIPOS>ATOM
      1 C         143.5565  141.0120  163.1824 C.ar    1  UNL1        0.3283
      2 N         143.6392  140.7011  164.6476 N.ar    1  UNL1       -0.1746
      3 C         142.7092  141.3768  165.6113 C.ar    1  UNL1        0.1712
      4 N         141.6966  142.3632  165.1099 N.ar    1  UNL1       -0.1943
      5 C         141.6138  142.6741  163.6448 C.ar    1  UNL1        0.2255
      6 N         142.5438  141.9984  162.6810 N.ar    1  UNL1       -0.1607
      7 C         142.7919  141.0659  167.0764 C.ar    1  UNL1        0.0553
      8 C         143.0095  142.1715  168.0665 C.ar    1  UNL1        0.0075
      9 C         143.0922  141.8608  169.5316 C.ar    1  UNL1        0.0340
     10 C         142.9573  140.4444  170.0066 C.ar    1  UNL1        0.1254
     11 N         143.0400  140.1336  171.4718 N.pl3   1  UNL1       -0.3426
     12 N         142.7397  139.3388  169.0165 N.ar    1  UNL1       -0.2295
     13 C         142.6570  139.6496  167.5514 C.ar    1  UNL1        0.1033
     14 H         143.1828  140.8592  172.1216 H       1  UNL1        0.1437
     15 H         142.9515  139.2039  171.7835 H       1  UNL1        0.1437
     16 N         140.6012  143.6605  163.1434 N.pl3   1  UNL1       -0.2729
     17 C         141.0517  144.9023  162.4328 C.3     1  UNL1        0.1257
     18 C         140.0391  145.8888  161.9314 C.3     1  UNL1        0.1637
     19 O         138.5758  145.6334  162.1406 O.3     1  UNL1       -0.3501
     20 C         138.1252  144.3916  162.8511 C.3     1  UNL1        0.1637
     21 C         139.1379  143.4051  163.3526 C.3     1  UNL1        0.1257
     22 O         144.4864  140.3363  162.2188 O.3     1  UNL1       -0.4222
     23 C         142.8334  138.1956  158.6222 C.ar    1  UNL1        0.0538
     24 C         143.2548  139.6310  158.5126 C.ar    1  UNL1        0.0076
     25 C         143.8058  140.3446  159.7115 C.ar    1  UNL1        0.0378
     26 C         143.9354  139.6228  161.0199 C.ar    1  UNL1        0.1487
     27 C         143.5141  138.1874  161.1296 C.ar    1  UNL1        0.0378
     28 C         142.9631  137.4738  159.9307 C.ar    1  UNL1        0.0076
     29 C         140.2640  136.8347  155.9212 C.3     1  UNL1        0.1152
     30 N         140.8150  137.5483  157.1200 N.am    1  UNL1       -0.2726
     31 C         139.8984  138.3281  158.0155 C.3     1  UNL1        0.1152
     32 C         142.2825  137.4820  157.4234 C.2     1  UNL1        0.2491
     33 O         143.1989  136.7023  156.5279 O.2     1  UNL1       -0.2699
@<TRIPOS>BOND
     1    29    30    1
     2    30    31    1
     3    30    32   am
     4    32    33    2
     5    32    23    1
     6    23    24   ar
     7    24    25   ar
     8    25    26   ar
     9    26    22    1
    10    22     1    1
    11     1     2   ar
    12     2     3   ar
    13     3     7    1
    14     7     8   ar
    15     8     9   ar
    16     9    10   ar
    17    10    11    1
    18    10    12   ar
    19    12    13   ar
    20     3     4   ar
    21     4     5   ar
    22     5    16    1
    23    16    17    1
    24    17    18    1
    25    18    19    1
    26    19    20    1
    27    20    21    1
    28     5     6   ar
    29    26    27   ar
    30    27    28   ar
    31    28    23   ar
    32     6     1   ar
    33    13     7   ar
    34    21    16    1
    35    11    14    1
    36    11    15    1
@<TRIPOS>MOLECULE
*****
 33 36 0 0 0
SMALL
GASTEIGER

@<TRIPOS>ATOM
      1 C         141.6254  139.9285  165.2417 C.ar    1  UNL1        0.3283
      2 N         141.2191  141.0349  164.3138 N.ar    1  UNL1       -0.1746
      3 C         140.7155  142.3335  164.8704 C.ar    1  UNL1        0.1712
      4 N         140.6181  142.5259  166.3548 N.ar    1  UNL1       -0.1943
      5 C         141.0244  141.4195  167.2827 C.ar    1  UNL1        0.2255
      6 N         141.5280  140.1208  166.7261 N.ar    1  UNL1       -0.1607
      7 C         140.3092  143.4400  163.9426 C.ar    1  UNL1        0.0553
      8 C         141.2977  144.5032  163.5650 C.ar    1  UNL1        0.0075
      9 C         140.8914  145.6095  162.6372 C.ar    1  UNL1        0.0340
     10 C         139.4967  145.6527  162.0870 C.ar    1  UNL1        0.1254
     11 N         139.0904  146.7592  161.1591 N.pl3   1  UNL1       -0.3426
     12 N         138.5082  144.5895  162.4645 N.ar    1  UNL1       -0.2295
     13 C         138.9145  143.4832  163.3923 C.ar    1  UNL1        0.1033
     14 H         139.7392  147.4570  160.9113 H       1  UNL1        0.1437
     15 H         138.1750  146.7875  160.7980 H       1  UNL1        0.1437
     16 N         140.9271  141.6118  168.7671 N.pl3   1  UNL1       -0.2729
     17 C         141.6311  140.6655  169.6937 C.3     1  UNL1        0.1257
     18 C         141.5338  140.8578  171.1782 C.3     1  UNL1        0.1637
     19 O         140.7324  141.9965  171.7360 O.3     1  UNL1       -0.3501
     20 C         140.0284  142.9429  170.8093 C.3     1  UNL1        0.1637
     21 C         140.1257  142.7506  169.3249 C.3     1  UNL1        0.1257
     22 O         142.1290  138.6298  164.6851 O.3     1  UNL1       -0.4222
     23 C         142.6315  138.1305  160.2412 C.ar    1  UNL1        0.0538
     24 C         141.2621  138.0813  160.8513 C.ar    1  UNL1        0.0076
     25 C         141.0946  138.2478  162.3326 C.ar    1  UNL1        0.0378
     26 C         142.2965  138.4634  163.2038 C.ar    1  UNL1        0.1487
     27 C         143.6658  138.5125  162.5936 C.ar    1  UNL1        0.0378
     28 C         143.8334  138.3460  161.1123 C.ar    1  UNL1        0.0076
     29 C         143.0224  139.0046  156.3898 C.3     1  UNL1        0.1152
     30 N         142.8549  139.1710  157.8711 N.am    1  UNL1       -0.2726
     31 C         142.7433  140.5446  158.4636 C.3     1  UNL1        0.1152
     32 C         142.7990  137.9640  158.7599 C.2     1  UNL1        0.2491
     33 O         142.9106  136.5906  158.1674 O.2     1  UNL1       -0.2699
@<TRIPOS>BOND
     1    29    30    1
     2    30    31    1
     3    30    32   am
     4    32    33    2
     5    32    23    1
     6    23    24   ar
     7    24    25   ar
     8    25    26   ar
     9    26    22    1
    10    22     1    1
    11     1     2   ar
    12     2     3   ar
    13     3     7    1
    14     7     8   ar
    15     8     9   ar
    16     9    10   ar
    17    10    11    1
    18    10    12   ar
    19    12    13   ar
    20     3     4   ar
    21     4     5   ar
    22     5    16    1
    23    16    17    1
    24    17    18    1
    25    18    19    1
    26    19    20    1
    27    20    21    1
    28     5     6   ar
    29    26    27   ar
    30    27    28   ar
    31    28    23   ar
    32     6     1   ar
    33    13     7   ar
    34    21    16    1
    35    11    14    1
    36    11    15    1
@<TRIPOS>MOLECULE
*****
 33 36 0 0 0
SMALL
GASTEIGER

@<TRIPOS>ATOM
      1 C         140.5725  138.7699  162.7991 C.ar    1  UNL1        0.3283
      2 N         140.3573  140.2531  162.8626 N.ar    1  UNL1       -0.1746
      3 C         140.3909  141.0704  161.6053 C.ar    1  UNL1        0.1712
      4 N         140.6395  140.4046  160.2844 N.ar    1  UNL1       -0.1943
      5 C         140.8547  138.9215  160.2208 C.ar    1  UNL1        0.2255
      6 N         140.8212  138.1041  161.4781 N.ar    1  UNL1       -0.1607
      7 C         140.1757  142.5536  161.6689 C.ar    1  UNL1        0.0553
      8 C         140.3750  143.2855  162.9630 C.ar    1  UNL1        0.0075
      9 C         140.1598  144.7686  163.0266 C.ar    1  UNL1        0.0340
     10 C         139.7454  145.5197  161.7962 C.ar    1  UNL1        0.1254
     11 N         139.5302  147.0029  161.8598 N.pl3   1  UNL1       -0.3426
     12 N         139.5461  144.7878  160.5021 N.ar    1  UNL1       -0.2295
     13 C         139.7612  143.3047  160.4385 C.ar    1  UNL1        0.1033
     14 H         139.6610  147.4833  162.7091 H       1  UNL1        0.1437
     15 H         139.2582  147.4959  161.0522 H       1  UNL1        0.1437
     16 N         141.1034  138.2557  158.8998 N.pl3   1  UNL1       -0.2729
     17 C         142.4804  137.7751  158.5496 C.3     1  UNL1        0.1257
     18 C         142.7291  137.1093  157.2287 C.3     1  UNL1        0.1637
     19 O         141.6007  136.9241  156.2580 O.3     1  UNL1       -0.3501
     20 C         140.2236  137.4047  156.6081 C.3     1  UNL1        0.1637
     21 C         139.9749  138.0705  157.9291 C.3     1  UNL1        0.1257
     22 O         140.5390  137.9526  164.0564 O.3     1  UNL1       -0.4222
     23 C         139.8898  139.9625  168.0299 C.ar    1  UNL1        0.0538
     24 C         141.2797  139.8004  167.4896 C.ar    1  UNL1        0.0076
     25 C         141.4961  139.1304  166.1651 C.ar    1  UNL1        0.0378
     26 C         140.3226  138.6226  165.3809 C.ar    1  UNL1        0.1487
     27 C         138.9328  138.7847  165.9212 C.ar    1  UNL1        0.0378
     28 C         138.7164  139.4547  167.2457 C.ar    1  UNL1        0.0076
     29 C         139.7703  142.7603  170.8421 C.3     1  UNL1        0.1152
     30 N         139.9867  142.0903  169.5176 N.am    1  UNL1       -0.2726
     31 C         140.5164  142.8782  168.3562 C.3     1  UNL1        0.1152
     32 C         139.6734  140.6325  169.3544 C.2     1  UNL1        0.2491
     33 O         139.1438  139.8447  170.5157 O.2     1  UNL1       -0.2699
@<TRIPOS>BOND
     1    29    30    1
     2    30    31    1
     3    30    32   am
     4    32    33    2
     5    32    23    1
     6    23    24   ar
     7    24    25   ar
     8    25    26   ar
     9    26    22    1
    10    22     1    1
    11     1     2   ar
    12     2     3   ar
    13     3     7    1
    14     7     8   ar
    15     8     9   ar
    16     9    10   ar
    17    10    11    1
    18    10    12   ar
    19    12    13   ar
    20     3     4   ar
    21     4     5   ar
    22     5    16    1
    23    16    17    1
    24    17    18    1
    25    18    19    1
    26    19    20    1
    27    20    21    1
    28     5     6   ar
    29    26    27   ar
    30    27    28   ar
    31    28    23   ar
    32     6     1   ar
    33    13     7   ar
    34    21    16    1
    35    11    14    1
    36    11    15    1
@<TRIPOS>MOLECULE
*****
 33 36 0 0 0
SMALL
GASTEIGER

@<TRIPOS>ATOM
      1 C         141.5875  138.7886  162.4373 C.ar    1  UNL1        0.3283
      2 N         141.1966  140.2362  162.4779 N.ar    1  UNL1       -0.1746
      3 C         140.8750  140.9622  161.2053 C.ar    1  UNL1        0.1712
      4 N         140.9444  140.2405  159.8921 N.ar    1  UNL1       -0.1943
      5 C         141.3353  138.7930  159.8515 C.ar    1  UNL1        0.2255
      6 N         141.6569  138.0670  161.1242 N.ar    1  UNL1       -0.1607
      7 C         140.4840  142.4098  161.2458 C.ar    1  UNL1        0.0553
      8 C         141.4674  143.4641  160.8316 C.ar    1  UNL1        0.0075
      9 C         141.0765  144.9117  160.8721 C.ar    1  UNL1        0.0340
     10 C         139.7023  145.3049  161.3268 C.ar    1  UNL1        0.1254
     11 N         139.3113  146.7526  161.3674 N.pl3   1  UNL1       -0.3426
     12 N         138.7190  144.2507  161.7411 N.ar    1  UNL1       -0.2295
     13 C         139.1098  142.8031  161.7005 C.ar    1  UNL1        0.1033
     14 H         139.9567  147.4446  161.0955 H       1  UNL1        0.1437
     15 H         138.4094  147.0107  161.6658 H       1  UNL1        0.1437
     16 N         141.4047  138.0713  158.5383 N.pl3   1  UNL1       -0.2729
     17 C         142.6940  137.4480  158.0923 C.3     1  UNL1        0.1257
     18 C         142.7633  136.7263  156.7791 C.3     1  UNL1        0.1637
     19 O         141.5434  136.6281  155.9120 O.3     1  UNL1       -0.3501
     20 C         140.2540  137.2515  156.3580 C.3     1  UNL1        0.1637
     21 C         140.1846  137.9731  157.6712 C.3     1  UNL1        0.1257
     22 O         141.9091  138.0626  163.7099 O.3     1  UNL1       -0.4222
     23 C         140.7846  139.8676  167.6757 C.ar    1  UNL1        0.0538
     24 C         139.7158  139.4931  166.6921 C.ar    1  UNL1        0.0076
     25 C         140.0907  138.8914  165.3702 C.ar    1  UNL1        0.0378
     26 C         141.5342  138.6643  165.0319 C.ar    1  UNL1        0.1487
     27 C         142.6030  139.0388  166.0155 C.ar    1  UNL1        0.0378
     28 C         142.2281  139.6405  167.3374 C.ar    1  UNL1        0.0076
     29 C         139.8999  142.5586  170.4552 C.3     1  UNL1        0.1152
     30 N         140.2747  141.9570  169.1333 N.am    1  UNL1       -0.2726
     31 C         140.5145  142.8431  167.9470 C.3     1  UNL1        0.1152
     32 C         140.4097  140.4693  168.9977 C.2     1  UNL1        0.2491
     33 O         140.1699  139.5832  170.1840 O.2     1  UNL1       -0.2699
@<TRIPOS>BOND
     1    29    30    1
     2    30    31    1
     3    30    32   am
     4    32    33    2
     5    32    23    1
     6    23    24   ar
     7    24    25   ar
     8    25    26   ar
     9    26    22    1
    10    22     1    1
    11     1     2   ar
    12     2     3   ar
    13     3     7    1
    14     7     8   ar
    15     8     9   ar
    16     9    10   ar
    17    10    11    1
    18    10    12   ar
    19    12    13   ar
    20     3     4   ar
    21     4     5   ar
    22     5    16    1
    23    16    17    1
    24    17    18    1
    25    18    19    1
    26    19    20    1
    27    20    21    1
    28     5     6   ar
    29    26    27   ar
    30    27    28   ar
    31    28    23   ar
    32     6     1   ar
    33    13     7   ar
    34    21    16    1
    35    11    14    1
    36    11    15    1
@<TRIPOS>MOLECULE
*****
 33 36 0 0 0
SMALL
GASTEIGER

@<TRIPOS>ATOM
      1 C         139.6935  138.9980  162.5349 C.ar    1  UNL1        0.3283
      2 N         140.2076  138.3276  161.2954 N.ar    1  UNL1       -0.1746
      3 C         140.5718  139.1492  160.0945 C.ar    1  UNL1        0.1712
      4 N         140.4220  140.6412  160.1330 N.ar    1  UNL1       -0.1943
      5 C         139.9079  141.3116  161.3725 C.ar    1  UNL1        0.2255
      6 N         139.5437  140.4900  162.5735 N.ar    1  UNL1       -0.1607
      7 C         141.0859  138.4788  158.8549 C.ar    1  UNL1        0.0553
      8 C         140.1307  138.0654  157.7748 C.ar    1  UNL1        0.0075
      9 C         140.6447  137.3951  156.5353 C.ar    1  UNL1        0.0340
     10 C         142.1139  137.1382  156.3759 C.ar    1  UNL1        0.1254
     11 N         142.6280  136.4678  155.1364 N.pl3   1  UNL1       -0.3426
     12 N         143.0691  137.5516  157.4561 N.ar    1  UNL1       -0.2295
     13 C         142.5551  138.2219  158.6956 C.ar    1  UNL1        0.1033
     14 H         142.0011  136.1964  154.4274 H       1  UNL1        0.1437
     15 H         143.5922  136.2991  155.0318 H       1  UNL1        0.1437
     16 N         139.7581  142.8036  161.4110 N.pl3   1  UNL1       -0.2729
     17 C         140.3349  143.6440  160.3106 C.3     1  UNL1        0.1257
     18 C         140.1851  145.1360  160.3491 C.3     1  UNL1        0.1637
     19 O         139.4584  145.7876  161.4881 O.3     1  UNL1       -0.3501
     20 C         138.8815  144.9472  162.5886 C.3     1  UNL1        0.1637
     21 C         139.0313  143.4552  162.5500 C.3     1  UNL1        0.1257
     22 O         139.3293  138.1764  163.7359 O.3     1  UNL1       -0.4222
     23 C         139.8975  139.8598  167.8702 C.ar    1  UNL1        0.0538
     24 C         141.0783  139.6889  166.9612 C.ar    1  UNL1        0.0076
     25 C         140.8889  139.1278  165.5831 C.ar    1  UNL1        0.0378
     26 C         139.5187  138.7375  165.1140 C.ar    1  UNL1        0.1487
     27 C         138.3379  138.9084  166.0230 C.ar    1  UNL1        0.0378
     28 C         138.5272  139.4695  167.4011 C.ar    1  UNL1        0.0076
     29 C         140.5375  142.4477  170.8102 C.3     1  UNL1        0.1152
     30 N         140.3481  141.8866  169.4320 N.am    1  UNL1       -0.2726
     31 C         140.4199  142.7911  168.2375 C.3     1  UNL1        0.1152
     32 C         140.0869  140.4210  169.2484 C.2     1  UNL1        0.2491
     33 O         140.0150  139.5165  170.4428 O.2     1  UNL1       -0.2699
@<TRIPOS>BOND
     1    29    30    1
     2    30    31    1
     3    30    32   am
     4    32    33    2
     5    32    23    1
     6    23    24   ar
     7    24    25   ar
     8    25    26   ar
     9    26    22    1
    10    22     1    1
    11     1     2   ar
    12     2     3   ar
    13     3     7    1
    14     7     8   ar
    15     8     9   ar
    16     9    10   ar
    17    10    11    1
    18    10    12   ar
    19    12    13   ar
    20     3     4   ar
    21     4     5   ar
    22     5    16    1
    23    16    17    1
    24    17    18    1
    25    18    19    1
    26    19    20    1
    27    20    21    1
    28     5     6   ar
    29    26    27   ar
    30    27    28   ar
    31    28    23   ar
    32     6     1   ar
    33    13     7   ar
    34    21    16    1
    35    11    14    1
    36    11    15    1
@<TRIPOS>MOLECULE
*****
 33 36 0 0 0
SMALL
GASTEIGER

@<TRIPOS>ATOM
      1 C         138.9585  139.4378  160.1552 C.ar    1  UNL1        0.3283
      2 N         139.5495  138.4065  159.2402 N.ar    1  UNL1       -0.1746
      3 C         140.6172  138.7961  158.2613 C.ar    1  UNL1        0.1712
      4 N         141.0940  140.2169  158.1974 N.ar    1  UNL1       -0.1943
      5 C         140.5030  141.2481  159.1124 C.ar    1  UNL1        0.2255
      6 N         139.4353  140.8586  160.0913 N.ar    1  UNL1       -0.1607
      7 C         141.2082  137.7648  157.3462 C.ar    1  UNL1        0.0553
      8 C         140.3747  137.1677  156.2514 C.ar    1  UNL1        0.0075
      9 C         140.9656  136.1365  155.3364 C.ar    1  UNL1        0.0340
     10 C         142.3901  135.7024  155.5161 C.ar    1  UNL1        0.1254
     11 N         142.9811  134.6711  154.6011 N.pl3   1  UNL1       -0.3426
     12 N         143.2236  136.2995  156.6109 N.ar    1  UNL1       -0.2295
     13 C         142.6327  137.3307  157.5260 C.ar    1  UNL1        0.1033
     14 H         142.4340  134.2792  153.8825 H       1  UNL1        0.1437
     15 H         143.9160  134.3862  154.7190 H       1  UNL1        0.1437
     16 N         140.9798  142.6689  159.0485 N.pl3   1  UNL1       -0.2729
     17 C         141.9837  143.0772  158.0115 C.3     1  UNL1        0.1257
     18 C         142.4605  144.4980  157.9477 C.3     1  UNL1        0.1637
     19 O         141.9333  145.5105  158.9208 O.3     1  UNL1       -0.3501
     20 C         140.9293  145.1022  159.9578 C.3     1  UNL1        0.1637
     21 C         140.4526  143.6814  160.0217 C.3     1  UNL1        0.1257
     22 O         137.8908  139.0483  161.1341 O.3     1  UNL1       -0.4222
     23 C         138.6925  139.2966  165.5551 C.ar    1  UNL1        0.0538
     24 C         138.0962  140.4689  164.8340 C.ar    1  UNL1        0.0076
     25 C         137.8290  140.3862  163.3603 C.ar    1  UNL1        0.0378
     26 C         138.1581  139.1311  162.6078 C.ar    1  UNL1        0.1487
     27 C         138.7544  137.9588  163.3289 C.ar    1  UNL1        0.0378
     28 C         139.0216  138.0416  164.8026 C.ar    1  UNL1        0.0076
     29 C         140.5111  140.0570  168.9996 C.3     1  UNL1        0.1152
     30 N         140.2439  139.9742  167.5260 N.am    1  UNL1       -0.2726
     31 C         141.2609  140.4862  166.5494 C.3     1  UNL1        0.1152
     32 C         138.9597  139.3794  167.0288 C.2     1  UNL1        0.2491
     33 O         137.9428  138.8675  168.0054 O.2     1  UNL1       -0.2699
@<TRIPOS>BOND
     1    29    30    1
     2    30    31    1
     3    30    32   am
     4    32    33    2
     5    32    23    1
     6    23    24   ar
     7    24    25   ar
     8    25    26   ar
     9    26    22    1
    10    22     1    1
    11     1     2   ar
    12     2     3   ar
    13     3     7    1
    14     7     8   ar
    15     8     9   ar
    16     9    10   ar
    17    10    11    1
    18    10    12   ar
    19    12    13   ar
    20     3     4   ar
    21     4     5   ar
    22     5    16    1
    23    16    17    1
    24    17    18    1
    25    18    19    1
    26    19    20    1
    27    20    21    1
    28     5     6   ar
    29    26    27   ar
    30    27    28   ar
    31    28    23   ar
    32     6     1   ar
    33    13     7   ar
    34    21    16    1
    35    11    14    1
    36    11    15    1
@<TRIPOS>MOLECULE
*****
 33 36 0 0 0
SMALL
GASTEIGER

@<TRIPOS>ATOM
      1 C         139.9741  138.6815  160.5695 C.ar    1  UNL1        0.3283
      2 N         140.1606  138.2046  159.1595 N.ar    1  UNL1       -0.1746
      3 C         141.4491  138.4749  158.4407 C.ar    1  UNL1        0.1712
      4 N         142.5511  139.2219  159.1318 N.ar    1  UNL1       -0.1943
      5 C         142.3646  139.6987  160.5417 C.ar    1  UNL1        0.2255
      6 N         141.0760  139.4285  161.2606 N.ar    1  UNL1       -0.1607
      7 C         141.6357  137.9981  157.0308 C.ar    1  UNL1        0.0553
      8 C         142.3701  136.7178  156.7630 C.ar    1  UNL1        0.0075
      9 C         142.5566  136.2410  155.3531 C.ar    1  UNL1        0.0340
     10 C         142.0089  137.0444  154.2110 C.ar    1  UNL1        0.1254
     11 N         142.1954  136.5676  152.8011 N.pl3   1  UNL1       -0.3426
     12 N         141.2745  138.3246  154.4788 N.ar    1  UNL1       -0.2295
     13 C         141.0879  138.8014  155.8887 C.ar    1  UNL1        0.1033
     14 H         142.6774  135.7273  152.6253 H       1  UNL1        0.1437
     15 H         141.8359  137.0949  152.0515 H       1  UNL1        0.1437
     16 N         143.4665  140.4458  161.2328 N.pl3   1  UNL1       -0.2729
     17 C         144.0593  139.9050  162.5001 C.3     1  UNL1        0.1257
     18 C         145.1612  140.6520  163.1912 C.3     1  UNL1        0.1637
     19 O         145.6705  141.9399  162.6149 O.3     1  UNL1       -0.3501
     20 C         145.0777  142.4807  161.3475 C.3     1  UNL1        0.1637
     21 C         143.9758  141.7337  160.6564 C.3     1  UNL1        0.1257
     22 O         138.6856  138.4112  161.2883 O.3     1  UNL1       -0.4222
     23 C         138.4393  138.9590  165.7480 C.ar    1  UNL1        0.0538
     24 C         138.8931  137.6482  165.1773 C.ar    1  UNL1        0.0076
     25 C         138.9752  137.4656  163.6908 C.ar    1  UNL1        0.0378
     26 C         138.6035  138.5938  162.7749 C.ar    1  UNL1        0.1487
     27 C         138.1496  139.9046  163.3456 C.ar    1  UNL1        0.0378
     28 C         138.0675  140.0873  164.8321 C.ar    1  UNL1        0.0076
     29 C         139.2740  140.1929  169.4264 C.3     1  UNL1        0.1152
     30 N         139.3561  140.0103  167.9398 N.am    1  UNL1       -0.2726
     31 C         140.4373  140.6965  167.1585 C.3     1  UNL1        0.1152
     32 C         138.3572  139.1416  167.2346 C.2     1  UNL1        0.2491
     33 O         137.2761  138.4555  168.0160 O.2     1  UNL1       -0.2699
@<TRIPOS>BOND
     1    29    30    1
     2    30    31    1
     3    30    32   am
     4    32    33    2
     5    32    23    1
     6    23    24   ar
     7    24    25   ar
     8    25    26   ar
     9    26    22    1
    10    22     1    1
    11     1     2   ar
    12     2     3   ar
    13     3     7    1
    14     7     8   ar
    15     8     9   ar
    16     9    10   ar
    17    10    11    1
    18    10    12   ar
    19    12    13   ar
    20     3     4   ar
    21     4     5   ar
    22     5    16    1
    23    16    17    1
    24    17    18    1
    25    18    19    1
    26    19    20    1
    27    20    21    1
    28     5     6   ar
    29    26    27   ar
    30    27    28   ar
    31    28    23   ar
    32     6     1   ar
    33    13     7   ar
    34    21    16    1
    35    11    14    1
    36    11    15    1
@<TRIPOS>MOLECULE
*****
 33 36 0 0 0
SMALL
GASTEIGER

@<TRIPOS>ATOM
      1 C         140.9260  140.2563  163.6364 C.ar    1  UNL1        0.3283
      2 N         141.2615  140.5490  165.0689 N.ar    1  UNL1       -0.1746
      3 C         141.2942  141.9670  165.5569 C.ar    1  UNL1        0.1712
      4 N         140.9912  143.0924  164.6126 N.ar    1  UNL1       -0.1943
      5 C         140.6556  142.7998  163.1803 C.ar    1  UNL1        0.2255
      6 N         140.6230  141.3817  162.6921 N.ar    1  UNL1       -0.1607
      7 C         141.6297  142.2596  166.9894 C.ar    1  UNL1        0.0553
      8 C         143.0329  142.0702  167.4848 C.ar    1  UNL1        0.0075
      9 C         143.3685  142.3629  168.9171 C.ar    1  UNL1        0.0340
     10 C         142.3009  142.8449  169.8541 C.ar    1  UNL1        0.1254
     11 N         142.6365  143.1375  171.2866 N.pl3   1  UNL1       -0.3426
     12 N         140.8978  143.0343  169.3587 N.ar    1  UNL1       -0.2295
     13 C         140.5622  142.7417  167.9264 C.ar    1  UNL1        0.1033
     14 H         143.5574  143.0132  171.6117 H       1  UNL1        0.1437
     15 H         141.9358  143.4539  171.9015 H       1  UNL1        0.1437
     16 N         140.3527  143.9251  162.2359 N.pl3   1  UNL1       -0.2729
     17 C         139.8221  145.2250  162.7639 C.3     1  UNL1        0.1257
     18 C         139.5192  146.3504  161.8196 C.3     1  UNL1        0.1637
     19 O         139.7468  146.1759  160.3473 O.3     1  UNL1       -0.3501
     20 C         140.2774  144.8760  159.8192 C.3     1  UNL1        0.1637
     21 C         140.5803  143.7506  160.7636 C.3     1  UNL1        0.1257
     22 O         140.8934  138.8384  163.1484 O.3     1  UNL1       -0.4222
     23 C         142.2327  137.8679  158.9634 C.ar    1  UNL1        0.0538
     24 C         143.1406  137.5904  160.1247 C.ar    1  UNL1        0.0076
     25 C         142.6941  137.9139  161.5197 C.ar    1  UNL1        0.0378
     26 C         141.3398  138.5149  161.7534 C.ar    1  UNL1        0.1487
     27 C         140.4320  138.7923  160.5920 C.ar    1  UNL1        0.0378
     28 C         140.8784  138.4688  159.1970 C.ar    1  UNL1        0.0076
     29 C         143.7390  138.2877  155.3158 C.3     1  UNL1        0.1152
     30 N         143.2926  138.6112  156.7108 N.am    1  UNL1       -0.2726
     31 C         143.4595  140.0017  157.2483 C.3     1  UNL1        0.1152
     32 C         142.6792  137.5444  157.5684 C.2     1  UNL1        0.2491
     33 O         142.5122  136.1540  157.0310 O.2     1  UNL1       -0.2699
@<TRIPOS>BOND
     1    29    30    1
     2    30    31    1
     3    30    32   am
     4    32    33    2
     5    32    23    1
     6    23    24   ar
     7    24    25   ar
     8    25    26   ar
     9    26    22    1
    10    22     1    1
    11     1     2   ar
    12     2     3   ar
    13     3     7    1
    14     7     8   ar
    15     8     9   ar
    16     9    10   ar
    17    10    11    1
    18    10    12   ar
    19    12    13   ar
    20     3     4   ar
    21     4     5   ar
    22     5    16    1
    23    16    17    1
    24    17    18    1
    25    18    19    1
    26    19    20    1
    27    20    21    1
    28     5     6   ar
    29    26    27   ar
    30    27    28   ar
    31    28    23   ar
    32     6     1   ar
    33    13     7   ar
    34    21    16    1
    35    11    14    1
    36    11    15    1
@<TRIPOS>MOLECULE
*****
 33 36 0 0 0
SMALL
GASTEIGER

@<TRIPOS>ATOM
      1 C         143.3498  139.3855  160.3688 C.ar    1  UNL1        0.3283
      2 N         142.5545  140.5957  160.7601 N.ar    1  UNL1       -0.1746
      3 C         142.4050  141.7378  159.7992 C.ar    1  UNL1        0.1712
      4 N         143.0509  141.6698  158.4471 N.ar    1  UNL1       -0.1943
      5 C         143.8462  140.4597  158.0558 C.ar    1  UNL1        0.2255
      6 N         143.9957  139.3175  159.0167 N.ar    1  UNL1       -0.1607
      7 C         141.6097  142.9479  160.1905 C.ar    1  UNL1        0.0553
      8 C         141.6999  143.4849  161.5882 C.ar    1  UNL1        0.0075
      9 C         140.9046  144.6950  161.9794 C.ar    1  UNL1        0.0340
     10 C         140.0192  145.3681  160.9730 C.ar    1  UNL1        0.1254
     11 N         139.2238  146.5783  161.3643 N.pl3   1  UNL1       -0.3426
     12 N         139.9290  144.8312  159.5754 N.ar    1  UNL1       -0.2295
     13 C         140.7243  143.6211  159.1841 C.ar    1  UNL1        0.1033
     14 H         139.2830  146.9308  162.2816 H       1  UNL1        0.1437
     15 H         138.6427  147.0201  160.7037 H       1  UNL1        0.1437
     16 N         144.4921  140.3917  156.7037 N.pl3   1  UNL1       -0.2729
     17 C         145.6536  141.2845  156.3816 C.3     1  UNL1        0.1257
     18 C         146.2995  141.2165  155.0295 C.3     1  UNL1        0.1637
     19 O         145.7839  140.2557  153.9995 O.3     1  UNL1       -0.3501
     20 C         144.6223  139.3629  154.3215 C.3     1  UNL1        0.1637
     21 C         143.9764  139.4309  155.6737 C.3     1  UNL1        0.1257
     22 O         143.4992  138.2434  161.3296 O.3     1  UNL1       -0.4222
     23 C         142.9221  138.9235  165.7404 C.ar    1  UNL1        0.0538
     24 C         141.9299  138.1018  164.9721 C.ar    1  UNL1        0.0076
     25 C         142.1223  137.8751  163.5018 C.ar    1  UNL1        0.0378
     26 C         143.3068  138.4701  162.7999 C.ar    1  UNL1        0.1487
     27 C         144.2990  139.2919  163.5682 C.ar    1  UNL1        0.0378
     28 C         144.1066  139.5186  165.0384 C.ar    1  UNL1        0.0076
     29 C         141.6164  140.4603  169.1585 C.3     1  UNL1        0.1152
     30 N         141.8088  140.2336  167.6882 N.am    1  UNL1       -0.2726
     31 C         141.0801  141.0903  166.6956 C.3     1  UNL1        0.1152
     32 C         142.7297  139.1502  167.2106 C.2     1  UNL1        0.2491
     33 O         143.4583  138.2936  168.2032 O.2     1  UNL1       -0.2699
@<TRIPOS>BOND
     1    29    30    1
     2    30    31    1
     3    30    32   am
     4    32    33    2
     5    32    23    1
     6    23    24   ar
     7    24    25   ar
     8    25    26   ar
     9    26    22    1
    10    22     1    1
    11     1     2   ar
    12     2     3   ar
    13     3     7    1
    14     7     8   ar
    15     8     9   ar
    16     9    10   ar
    17    10    11    1
    18    10    12   ar
    19    12    13   ar
    20     3     4   ar
    21     4     5   ar
    22     5    16    1
    23    16    17    1
    24    17    18    1
    25    18    19    1
    26    19    20    1
    27    20    21    1
    28     5     6   ar
    29    26    27   ar
    30    27    28   ar
    31    28    23   ar
    32     6     1   ar
    33    13     7   ar
    34    21    16    1
    35    11    14    1
    36    11    15    1
