@<TRIPOS>MOLECULE
*****
 41 46 0 0 0
SMALL
GASTEIGER

@<TRIPOS>ATOM
      1 N         139.8462  145.5227  156.0093 N.3     1  UNL1       -0.2676
      2 C         139.1095  144.2539  155.6974 C.3     1  UNL1        0.0746
      3 C         138.8153  143.2695  156.7902 C.3     1  UNL1        0.0450
      4 C         139.2579  143.5538  158.1950 C.3     1  UNL1        0.1405
      5 C         139.9947  144.8226  158.5069 C.3     1  UNL1        0.0450
      6 C         140.2888  145.8070  157.4141 C.3     1  UNL1        0.0746
      7 C         139.6359  143.7006  159.6391 C.2     1  UNL1        0.2529
      8 O         140.3744  144.8576  160.2440 O.2     1  UNL1       -0.2724
      9 N         139.1457  142.4872  160.3723 N.am    1  UNL1       -0.1907
     10 C         138.4647  141.5904  159.3811 C.2     1  UNL1        0.3231
     11 O         137.8265  140.2670  159.6827 O.2     1  UNL1       -0.2511
     12 N         138.5341  142.2496  158.0355 N.am    1  UNL1       -0.2071
     13 C         139.3079  142.2178  161.8389 C.ar    1  UNL1        0.0622
     14 C         140.6734  141.9759  162.4105 C.ar    1  UNL1        0.0154
     15 C         140.8356  141.7065  163.8771 C.ar    1  UNL1        0.0013
     16 C         139.6324  141.6790  164.7722 C.ar    1  UNL1        0.0001
     17 C         138.2668  141.9210  164.2007 C.ar    1  UNL1        0.0013
     18 C         138.1045  142.1903  162.7340 C.ar    1  UNL1        0.0154
     19 C         139.7946  141.4097  166.2389 C.ar    1  UNL1        0.0000
     20 C         140.4329  142.4385  167.1243 C.ar    1  UNL1        0.0000
     21 C         140.5952  142.1692  168.5910 C.ar    1  UNL1        0.0011
     22 C         140.1190  140.8709  169.1723 C.ar    1  UNL1        0.0140
     23 C         139.4807  139.8420  168.2868 C.ar    1  UNL1        0.0011
     24 C         139.3185  140.1114  166.8201 C.ar    1  UNL1        0.0000
     25 C         140.2813  140.6015  170.6389 C.2     1  UNL1        0.0729
     26 O         141.2606  141.4024  171.4447 O.co2   1  UNL1       -0.5446
     27 O         139.4641  139.5311  171.2998 O.co2   1  UNL1       -0.5446
     28 C         137.9774  141.7011  156.7553 C.ar    1  UNL1        0.2276
     29 N         138.8353  140.8470  155.8695 N.ar    1  UNL1       -0.2117
     30 C         138.2785  140.2984  154.5892 C.ar    1  UNL1        0.1034
     31 C         136.8639  140.6040  154.1946 C.ar    1  UNL1        0.0414
     32 C         136.0061  141.4581  155.0804 C.ar    1  UNL1        0.1034
     33 N         136.5629  142.0066  156.3607 N.ar    1  UNL1       -0.2117
     34 C         140.1404  146.5072  154.9165 C.3     1  UNL1        0.1183
     35 C         140.8610  148.5156  152.8077 C.3     1  UNL1        0.0323
     36 C         140.0128  148.9253  153.9750 C.ar    1  UNL1       -0.0069
     37 C         139.5248  150.3392  154.0879 C.ar    1  UNL1       -0.0015
     38 C         138.6765  150.7489  155.2552 C.ar    1  UNL1        0.0203
     39 C         138.3163  149.7447  156.3096 C.ar    1  UNL1        0.0985
     40 N         138.8042  148.3308  156.1967 N.ar    1  UNL1       -0.2471
     41 C         139.6525  147.9211  155.0294 C.ar    1  UNL1        0.0712
@<TRIPOS>UNITY_ATOM_ATTR
26 1
charge -1
@<TRIPOS>BOND
     1    35    36    1
     2    36    37   ar
     3    37    38   ar
     4    38    39   ar
     5    39    40   ar
     6    40    41   ar
     7    41    34    1
     8    34     1    1
     9     1     2    1
    10     2     3    1
    11     3     4    1
    12     4     5    1
    13     5     6    1
    14     4     7    1
    15     7     8    2
    16     7     9   am
    17     9    13    1
    18    13    14   ar
    19    14    15   ar
    20    15    16   ar
    21    16    19    1
    22    19    20   ar
    23    20    21   ar
    24    21    22   ar
    25    22    25    1
    26    25    26   ar
    27    25    27   ar
    28    22    23   ar
    29    23    24   ar
    30    16    17   ar
    31    17    18   ar
    32     9    10   am
    33    10    11    2
    34    10    12   am
    35    12    28    1
    36    28    29   ar
    37    29    30   ar
    38    30    31   ar
    39    31    32   ar
    40    32    33   ar
    41    41    36   ar
    42     6     1    1
    43    18    13   ar
    44    33    28   ar
    45    12     4    1
    46    24    19   ar
@<TRIPOS>MOLECULE
*****
 41 46 0 0 0
SMALL
GASTEIGER

@<TRIPOS>ATOM
      1 N         140.7909  138.2888  156.1621 N.3     1  UNL1       -0.2676
      2 C         139.6828  139.2939  156.0538 C.3     1  UNL1        0.0746
      3 C         139.3229  140.1438  157.2361 C.3     1  UNL1        0.0450
      4 C         140.0712  139.9886  158.5269 C.3     1  UNL1        0.1405
      5 C         141.1794  138.9836  158.6352 C.3     1  UNL1        0.0450
      6 C         141.5392  138.1336  157.4528 C.3     1  UNL1        0.0746
      7 C         140.7268  139.9463  159.8754 C.2     1  UNL1        0.2529
      8 O         141.8574  139.0466  160.2782 O.2     1  UNL1       -0.2724
      9 N         140.0533  140.9617  160.7504 N.am    1  UNL1       -0.1907
     10 C         138.9815  141.6316  159.9425 C.2     1  UNL1        0.3231
     11 O         138.0604  142.7129  160.4243 O.2     1  UNL1       -0.2511
     12 N         138.9925  141.0302  158.5684 N.am    1  UNL1       -0.2071
     13 C         140.3922  141.2556  162.1817 C.ar    1  UNL1        0.0622
     14 C         139.4576  140.8322  163.2758 C.ar    1  UNL1        0.0154
     15 C         139.7965  141.1261  164.7072 C.ar    1  UNL1        0.0013
     16 C         141.0699  141.8434  165.0444 C.ar    1  UNL1        0.0001
     17 C         142.0046  142.2668  163.9502 C.ar    1  UNL1        0.0013
     18 C         141.6657  141.9729  162.5189 C.ar    1  UNL1        0.0154
     19 C         141.4088  142.1373  166.4757 C.ar    1  UNL1        0.0000
     20 C         142.7961  141.8819  166.9857 C.ar    1  UNL1        0.0000
     21 C         143.1350  142.1758  168.4170 C.ar    1  UNL1        0.0011
     22 C         142.0865  142.7251  169.3385 C.ar    1  UNL1        0.0140
     23 C         140.6991  142.9804  168.8286 C.ar    1  UNL1        0.0011
     24 C         140.3603  142.6865  167.3971 C.ar    1  UNL1        0.0000
     25 C         142.4253  143.0190  170.7699 C.2     1  UNL1        0.0729
     26 O         143.4793  144.0347  171.0977 O.co2   1  UNL1       -0.5446
     27 O         141.7102  142.2972  171.8733 O.co2   1  UNL1       -0.5446
     28 C         138.0844  141.4046  157.4348 C.ar    1  UNL1        0.2276
     29 N         138.4662  142.5172  156.5040 N.ar    1  UNL1       -0.2117
     30 C         137.5580  142.8915  155.3704 C.ar    1  UNL1        0.1034
     31 C         136.2680  142.1533  155.1676 C.ar    1  UNL1        0.0414
     32 C         135.8863  141.0408  156.0984 C.ar    1  UNL1        0.1034
     33 N         136.7944  140.6664  157.2320 N.ar    1  UNL1       -0.2117
     34 C         141.1508  137.4388  154.9797 C.3     1  UNL1        0.1183
     35 C         144.1287  137.2267  155.2750 C.3     1  UNL1        0.0323
     36 C         143.2793  135.9918  155.3345 C.ar    1  UNL1       -0.0069
     37 C         143.9189  134.6509  155.5416 C.ar    1  UNL1       -0.0015
     38 C         143.0695  133.4160  155.6011 C.ar    1  UNL1        0.0203
     39 C         141.5806  133.5220  155.4534 C.ar    1  UNL1        0.0985
     40 N         140.9410  134.8630  155.2463 N.ar    1  UNL1       -0.2471
     41 C         141.7904  136.0979  155.1868 C.ar    1  UNL1        0.0712
@<TRIPOS>UNITY_ATOM_ATTR
26 1
charge -1
@<TRIPOS>BOND
     1    35    36    1
     2    36    37   ar
     3    37    38   ar
     4    38    39   ar
     5    39    40   ar
     6    40    41   ar
     7    41    34    1
     8    34     1    1
     9     1     2    1
    10     2     3    1
    11     3     4    1
    12     4     5    1
    13     5     6    1
    14     4     7    1
    15     7     8    2
    16     7     9   am
    17     9    13    1
    18    13    14   ar
    19    14    15   ar
    20    15    16   ar
    21    16    19    1
    22    19    20   ar
    23    20    21   ar
    24    21    22   ar
    25    22    25    1
    26    25    26   ar
    27    25    27   ar
    28    22    23   ar
    29    23    24   ar
    30    16    17   ar
    31    17    18   ar
    32     9    10   am
    33    10    11    2
    34    10    12   am
    35    12    28    1
    36    28    29   ar
    37    29    30   ar
    38    30    31   ar
    39    31    32   ar
    40    32    33   ar
    41    41    36   ar
    42     6     1    1
    43    18    13   ar
    44    33    28   ar
    45    12     4    1
    46    24    19   ar
@<TRIPOS>MOLECULE
*****
 41 46 0 0 0
SMALL
GASTEIGER

@<TRIPOS>ATOM
      1 N         142.5910  137.1819  156.8216 N.3     1  UNL1       -0.2676
      2 C         141.5442  138.1463  156.3482 C.3     1  UNL1        0.0746
      3 C         140.8423  139.0341  157.3327 C.3     1  UNL1        0.0450
      4 C         141.1873  138.9576  158.7904 C.3     1  UNL1        0.1405
      5 C         142.2342  137.9932  159.2638 C.3     1  UNL1        0.0450
      6 C         142.9360  137.1054  158.2794 C.3     1  UNL1        0.0746
      7 C         141.4249  138.9932  160.2711 C.2     1  UNL1        0.2529
      8 O         142.4060  138.1473  161.0273 O.2     1  UNL1       -0.2724
      9 N         140.5090  140.0234  160.8629 N.am    1  UNL1       -0.1907
     10 C         139.7054  140.6243  159.7479 C.2     1  UNL1        0.3231
     11 O         138.6653  141.6958  159.8889 O.2     1  UNL1       -0.2511
     12 N         140.1246  139.9657  158.4671 N.am    1  UNL1       -0.2071
     13 C         140.4135  140.3884  162.3146 C.ar    1  UNL1        0.0622
     14 C         141.5470  141.1081  162.9831 C.ar    1  UNL1        0.0154
     15 C         141.4516  141.4731  164.4349 C.ar    1  UNL1        0.0013
     16 C         140.2225  141.1185  165.2181 C.ar    1  UNL1        0.0001
     17 C         139.0889  140.3987  164.5496 C.ar    1  UNL1        0.0013
     18 C         139.1844  140.0337  163.0979 C.ar    1  UNL1        0.0154
     19 C         140.1270  141.4835  166.6699 C.ar    1  UNL1        0.0000
     20 C         140.4444  142.8805  167.1144 C.ar    1  UNL1        0.0000
     21 C         140.3489  143.2456  168.5662 C.ar    1  UNL1        0.0011
     22 C         139.9360  142.2135  169.5735 C.ar    1  UNL1        0.0140
     23 C         139.6187  140.8165  169.1289 C.ar    1  UNL1        0.0011
     24 C         139.7142  140.4515  167.6771 C.ar    1  UNL1        0.0000
     25 C         139.8406  142.5786  171.0252 C.2     1  UNL1        0.0729
     26 O         140.7228  141.8978  172.0293 O.co2   1  UNL1       -0.5446
     27 O         138.8628  143.6244  171.4729 O.co2   1  UNL1       -0.5446
     28 C         139.5773  140.2628  157.1025 C.ar    1  UNL1        0.2276
     29 N         140.2194  141.3168  156.2500 N.ar    1  UNL1       -0.2117
     30 C         139.6720  141.6139  154.8854 C.ar    1  UNL1        0.1034
     31 C         138.4824  140.8570  154.3733 C.ar    1  UNL1        0.0414
     32 C         137.8403  139.8031  155.2258 C.ar    1  UNL1        0.1034
     33 N         138.3877  139.5060  156.5904 N.ar    1  UNL1       -0.2117
     34 C         143.2929  136.2941  155.8371 C.3     1  UNL1        0.1183
     35 C         141.8393  135.5627  153.3168 C.3     1  UNL1        0.0323
     36 C         142.0925  134.5209  154.3658 C.ar    1  UNL1       -0.0069
     37 C         141.6188  133.1134  154.1547 C.ar    1  UNL1       -0.0015
     38 C         141.8720  132.0716  155.2038 C.ar    1  UNL1        0.0203
     39 C         142.5987  132.4372  156.4639 C.ar    1  UNL1        0.0985
     40 N         143.0724  133.8448  156.6751 N.ar    1  UNL1       -0.2471
     41 C         142.8193  134.8866  155.6260 C.ar    1  UNL1        0.0712
@<TRIPOS>UNITY_ATOM_ATTR
26 1
charge -1
@<TRIPOS>BOND
     1    35    36    1
     2    36    37   ar
     3    37    38   ar
     4    38    39   ar
     5    39    40   ar
     6    40    41   ar
     7    41    34    1
     8    34     1    1
     9     1     2    1
    10     2     3    1
    11     3     4    1
    12     4     5    1
    13     5     6    1
    14     4     7    1
    15     7     8    2
    16     7     9   am
    17     9    13    1
    18    13    14   ar
    19    14    15   ar
    20    15    16   ar
    21    16    19    1
    22    19    20   ar
    23    20    21   ar
    24    21    22   ar
    25    22    25    1
    26    25    26   ar
    27    25    27   ar
    28    22    23   ar
    29    23    24   ar
    30    16    17   ar
    31    17    18   ar
    32     9    10   am
    33    10    11    2
    34    10    12   am
    35    12    28    1
    36    28    29   ar
    37    29    30   ar
    38    30    31   ar
    39    31    32   ar
    40    32    33   ar
    41    41    36   ar
    42     6     1    1
    43    18    13   ar
    44    33    28   ar
    45    12     4    1
    46    24    19   ar
@<TRIPOS>MOLECULE
*****
 41 46 0 0 0
SMALL
GASTEIGER

@<TRIPOS>ATOM
      1 N         143.3976  137.7148  156.3202 N.3     1  UNL1       -0.2676
      2 C         143.9395  139.0885  156.0575 C.3     1  UNL1        0.0746
      3 C         143.9651  140.1077  157.1577 C.3     1  UNL1        0.0450
      4 C         143.4488  139.7531  158.5207 C.3     1  UNL1        0.1405
      5 C         142.9069  138.3793  158.7834 C.3     1  UNL1        0.0450
      6 C         142.8813  137.3602  157.6831 C.3     1  UNL1        0.0746
      7 C         142.9695  139.5449  159.9267 C.2     1  UNL1        0.2529
      8 O         142.3805  138.2809  160.4794 O.2     1  UNL1       -0.2724
      9 N         143.1826  140.8226  160.6832 N.am    1  UNL1       -0.1907
     10 C         143.7936  141.8205  159.7445 C.2     1  UNL1        0.3231
     11 O         144.1734  143.2315  160.0829 O.2     1  UNL1       -0.2511
     12 N         143.9581  141.1596  158.4081 N.am    1  UNL1       -0.2071
     13 C         142.8442  141.0606  162.1250 C.ar    1  UNL1        0.0622
     14 C         143.9054  140.9267  163.1764 C.ar    1  UNL1        0.0154
     15 C         143.5670  141.1647  164.6182 C.ar    1  UNL1        0.0013
     16 C         142.1673  141.5366  165.0085 C.ar    1  UNL1        0.0001
     17 C         141.1060  141.6706  163.9570 C.ar    1  UNL1        0.0013
     18 C         141.4444  141.4326  162.5152 C.ar    1  UNL1        0.0154
     19 C         141.8289  141.7746  166.4503 C.ar    1  UNL1        0.0000
     20 C         142.9128  142.1203  167.4280 C.ar    1  UNL1        0.0000
     21 C         142.5744  142.3583  168.8698 C.ar    1  UNL1        0.0011
     22 C         141.1520  142.2506  169.3340 C.ar    1  UNL1        0.0140
     23 C         140.0681  141.9049  168.3564 C.ar    1  UNL1        0.0011
     24 C         140.4066  141.6669  166.9145 C.ar    1  UNL1        0.0000
     25 C         140.8136  142.4886  170.7758 C.2     1  UNL1        0.0729
     26 O         141.7955  142.1185  171.8476 O.co2   1  UNL1       -0.5446
     27 O         139.4932  143.0968  171.1458 O.co2   1  UNL1       -0.5446
     28 C         144.5312  141.7936  157.1755 C.ar    1  UNL1        0.2276
     29 N         146.0062  141.7229  156.9122 N.ar    1  UNL1       -0.2117
     30 C         146.5793  142.3570  155.6795 C.ar    1  UNL1        0.1034
     31 C         145.6774  143.0618  154.7100 C.ar    1  UNL1        0.0414
     32 C         144.2024  143.1325  154.9733 C.ar    1  UNL1        0.1034
     33 N         143.6293  142.4984  156.2060 N.ar    1  UNL1       -0.2117
     34 C         143.3721  136.6955  155.2199 C.3     1  UNL1        0.1183
     35 C         140.7809  135.5263  154.2613 C.3     1  UNL1        0.0323
     36 C         141.7385  134.6824  155.0492 C.ar    1  UNL1       -0.0069
     37 C         141.4006  133.2540  155.3578 C.ar    1  UNL1       -0.0015
     38 C         142.3582  132.4101  156.1457 C.ar    1  UNL1        0.0203
     39 C         143.6538  132.9947  156.6250 C.ar    1  UNL1        0.0985
     40 N         143.9918  134.4232  156.3164 N.ar    1  UNL1       -0.2471
     41 C         143.0341  135.2671  155.5285 C.ar    1  UNL1        0.0712
@<TRIPOS>UNITY_ATOM_ATTR
26 1
charge -1
@<TRIPOS>BOND
     1    35    36    1
     2    36    37   ar
     3    37    38   ar
     4    38    39   ar
     5    39    40   ar
     6    40    41   ar
     7    41    34    1
     8    34     1    1
     9     1     2    1
    10     2     3    1
    11     3     4    1
    12     4     5    1
    13     5     6    1
    14     4     7    1
    15     7     8    2
    16     7     9   am
    17     9    13    1
    18    13    14   ar
    19    14    15   ar
    20    15    16   ar
    21    16    19    1
    22    19    20   ar
    23    20    21   ar
    24    21    22   ar
    25    22    25    1
    26    25    26   ar
    27    25    27   ar
    28    22    23   ar
    29    23    24   ar
    30    16    17   ar
    31    17    18   ar
    32     9    10   am
    33    10    11    2
    34    10    12   am
    35    12    28    1
    36    28    29   ar
    37    29    30   ar
    38    30    31   ar
    39    31    32   ar
    40    32    33   ar
    41    41    36   ar
    42     6     1    1
    43    18    13   ar
    44    33    28   ar
    45    12     4    1
    46    24    19   ar
@<TRIPOS>MOLECULE
*****
 41 46 0 0 0
SMALL
GASTEIGER

@<TRIPOS>ATOM
      1 N         144.7869  140.2138  156.1804 N.3     1  UNL1       -0.2676
      2 C         143.7105  139.1758  156.0630 C.3     1  UNL1        0.0746
      3 C         142.8283  138.8741  157.2380 C.3     1  UNL1        0.0450
      4 C         143.0224  139.6104  158.5303 C.3     1  UNL1        0.1405
      5 C         144.0988  140.6484  158.6477 C.3     1  UNL1        0.0450
      6 C         144.9811  140.9501  157.4728 C.3     1  UNL1        0.0746
      7 C         143.0973  140.2618  159.8795 C.2     1  UNL1        0.2529
      8 O         144.0676  141.3293  160.2904 O.2     1  UNL1       -0.2724
      9 N         142.0315  139.6583  160.7455 N.am    1  UNL1       -0.1907
     10 C         141.2979  138.6338  159.9315 C.2     1  UNL1        0.3231
     11 O         140.1530  137.7876  160.4037 O.2     1  UNL1       -0.2511
     12 N         141.9103  138.6043  158.5626 N.am    1  UNL1       -0.2071
     13 C         141.7489  140.0163  162.1744 C.ar    1  UNL1        0.0622
     14 C         140.8224  141.1517  162.4940 C.ar    1  UNL1        0.0154
     15 C         140.5399  141.5098  163.9229 C.ar    1  UNL1        0.0013
     16 C         141.1838  140.7323  165.0323 C.ar    1  UNL1        0.0001
     17 C         142.1103  139.5968  164.7128 C.ar    1  UNL1        0.0013
     18 C         142.3929  139.2388  163.2838 C.ar    1  UNL1        0.0154
     19 C         140.9012  141.0904  166.4613 C.ar    1  UNL1        0.0000
     20 C         140.4979  140.0239  167.4360 C.ar    1  UNL1        0.0000
     21 C         140.2153  140.3819  168.8650 C.ar    1  UNL1        0.0011
     22 C         140.3361  141.8065  169.3193 C.ar    1  UNL1        0.0140
     23 C         140.7394  142.8729  168.3446 C.ar    1  UNL1        0.0011
     24 C         141.0220  142.5148  166.9155 C.ar    1  UNL1        0.0000
     25 C         140.0535  142.1645  170.7483 C.2     1  UNL1        0.0729
     26 O         140.5957  141.3114  171.8565 O.co2   1  UNL1       -0.5446
     27 O         139.2287  143.3756  171.0690 O.co2   1  UNL1       -0.5446
     28 C         141.4853  137.7233  157.4254 C.ar    1  UNL1        0.2276
     29 N         142.2300  136.4524  157.1423 N.ar    1  UNL1       -0.2117
     30 C         141.8050  135.5714  156.0051 C.ar    1  UNL1        0.1034
     31 C         140.6351  135.9613  155.1509 C.ar    1  UNL1        0.0414
     32 C         139.8904  137.2322  155.4340 C.ar    1  UNL1        0.1034
     33 N         140.3155  138.1132  156.5712 N.ar    1  UNL1       -0.2117
     34 C         145.6692  140.5156  155.0054 C.3     1  UNL1        0.1183
     35 C         148.2838  141.9376  155.3820 C.3     1  UNL1        0.0323
     36 C         147.1363  142.6406  154.7194 C.ar    1  UNL1       -0.0069
     37 C         147.2961  144.0546  154.2450 C.ar    1  UNL1       -0.0015
     38 C         146.1487  144.7576  153.5824 C.ar    1  UNL1        0.0203
     39 C         144.8414  144.0466  153.3941 C.ar    1  UNL1        0.0985
     40 N         144.6816  142.6326  153.8684 N.ar    1  UNL1       -0.2471
     41 C         145.8290  141.9296  154.5311 C.ar    1  UNL1        0.0712
@<TRIPOS>UNITY_ATOM_ATTR
26 1
charge -1
@<TRIPOS>BOND
     1    35    36    1
     2    36    37   ar
     3    37    38   ar
     4    38    39   ar
     5    39    40   ar
     6    40    41   ar
     7    41    34    1
     8    34     1    1
     9     1     2    1
    10     2     3    1
    11     3     4    1
    12     4     5    1
    13     5     6    1
    14     4     7    1
    15     7     8    2
    16     7     9   am
    17     9    13    1
    18    13    14   ar
    19    14    15   ar
    20    15    16   ar
    21    16    19    1
    22    19    20   ar
    23    20    21   ar
    24    21    22   ar
    25    22    25    1
    26    25    26   ar
    27    25    27   ar
    28    22    23   ar
    29    23    24   ar
    30    16    17   ar
    31    17    18   ar
    32     9    10   am
    33    10    11    2
    34    10    12   am
    35    12    28    1
    36    28    29   ar
    37    29    30   ar
    38    30    31   ar
    39    31    32   ar
    40    32    33   ar
    41    41    36   ar
    42     6     1    1
    43    18    13   ar
    44    33    28   ar
    45    12     4    1
    46    24    19   ar
@<TRIPOS>MOLECULE
*****
 41 46 0 0 0
SMALL
GASTEIGER

@<TRIPOS>ATOM
      1 N         145.1753  142.0782  156.3564 N.3     1  UNL1       -0.2676
      2 C         144.4443  140.8106  156.0265 C.3     1  UNL1        0.0746
      3 C         143.6989  140.0738  157.0995 C.3     1  UNL1        0.0450
      4 C         143.6845  140.6045  158.5024 C.3     1  UNL1        0.1405
      5 C         144.4155  141.8721  158.8323 C.3     1  UNL1        0.0450
      6 C         145.1609  142.6089  157.7593 C.3     1  UNL1        0.0746
      7 C         143.5810  141.0114  159.9425 C.2     1  UNL1        0.2529
      8 O         144.2049  142.2265  160.5624 O.2     1  UNL1       -0.2724
      9 N         142.7442  139.9897  160.6539 N.am    1  UNL1       -0.1907
     10 C         142.3304  138.9514  159.6534 C.2     1  UNL1        0.3231
     11 O         141.4842  137.7451  159.9334 O.2     1  UNL1       -0.2511
     12 N         142.9115  139.3314  158.3238 N.am    1  UNL1       -0.2071
     13 C         142.3843  140.0039  162.1100 C.ar    1  UNL1        0.0622
     14 C         143.0465  139.0461  163.0555 C.ar    1  UNL1        0.0154
     15 C         142.6866  139.0603  164.5116 C.ar    1  UNL1        0.0013
     16 C         141.6646  140.0322  165.0222 C.ar    1  UNL1        0.0001
     17 C         141.0024  140.9900  164.0766 C.ar    1  UNL1        0.0013
     18 C         141.3622  140.9758  162.6205 C.ar    1  UNL1        0.0154
     19 C         141.3047  140.0463  166.4783 C.ar    1  UNL1        0.0000
     20 C         142.3729  139.8709  167.5166 C.ar    1  UNL1        0.0000
     21 C         142.0131  139.8851  168.9727 C.ar    1  UNL1        0.0011
     22 C         140.5849  140.0746  169.3906 C.ar    1  UNL1        0.0140
     23 C         139.5166  140.2500  168.3522 C.ar    1  UNL1        0.0011
     24 C         139.8766  140.2359  166.8961 C.ar    1  UNL1        0.0000
     25 C         140.2250  140.0888  170.8467 C.2     1  UNL1        0.0729
     26 O         139.1605  139.1678  171.3651 O.co2   1  UNL1       -0.5446
     27 O         140.9296  141.0238  171.7844 O.co2   1  UNL1       -0.5446
     28 C         142.7484  138.5717  157.0407 C.ar    1  UNL1        0.2276
     29 N         143.6916  137.4546  156.7054 N.ar    1  UNL1       -0.2117
     30 C         143.5284  136.6950  155.4223 C.ar    1  UNL1        0.1034
     31 C         142.4221  137.0524  154.4745 C.ar    1  UNL1        0.0414
     32 C         141.4789  138.1695  154.8099 C.ar    1  UNL1        0.1034
     33 N         141.6421  138.9291  156.0929 N.ar    1  UNL1       -0.2117
     34 C         145.9208  142.8151  155.2833 C.3     1  UNL1        0.1183
     35 C         146.8121  142.7488  152.4195 C.3     1  UNL1        0.0323
     36 C         147.7746  142.3914  153.5131 C.ar    1  UNL1       -0.0069
     37 C         149.1828  142.0009  153.1747 C.ar    1  UNL1       -0.0015
     38 C         150.1453  141.6434  154.2682 C.ar    1  UNL1        0.0203
     39 C         149.6997  141.6765  155.7001 C.ar    1  UNL1        0.0985
     40 N         148.2915  142.0671  156.0385 N.ar    1  UNL1       -0.2471
     41 C         147.3289  142.4245  154.9450 C.ar    1  UNL1        0.0712
@<TRIPOS>UNITY_ATOM_ATTR
26 1
charge -1
@<TRIPOS>BOND
     1    35    36    1
     2    36    37   ar
     3    37    38   ar
     4    38    39   ar
     5    39    40   ar
     6    40    41   ar
     7    41    34    1
     8    34     1    1
     9     1     2    1
    10     2     3    1
    11     3     4    1
    12     4     5    1
    13     5     6    1
    14     4     7    1
    15     7     8    2
    16     7     9   am
    17     9    13    1
    18    13    14   ar
    19    14    15   ar
    20    15    16   ar
    21    16    19    1
    22    19    20   ar
    23    20    21   ar
    24    21    22   ar
    25    22    25    1
    26    25    26   ar
    27    25    27   ar
    28    22    23   ar
    29    23    24   ar
    30    16    17   ar
    31    17    18   ar
    32     9    10   am
    33    10    11    2
    34    10    12   am
    35    12    28    1
    36    28    29   ar
    37    29    30   ar
    38    30    31   ar
    39    31    32   ar
    40    32    33   ar
    41    41    36   ar
    42     6     1    1
    43    18    13   ar
    44    33    28   ar
    45    12     4    1
    46    24    19   ar
@<TRIPOS>MOLECULE
*****
 41 46 0 0 0
SMALL
GASTEIGER

@<TRIPOS>ATOM
      1 N         140.6957  143.7496  159.8557 N.3     1  UNL1       -0.2676
      2 C         139.9999  143.9537  158.5427 C.3     1  UNL1        0.0746
      3 C         140.0212  142.8696  157.5062 C.3     1  UNL1        0.0450
      4 C         140.7384  141.5815  157.7828 C.3     1  UNL1        0.1405
      5 C         141.4342  141.3775  159.0958 C.3     1  UNL1        0.0450
      6 C         141.4129  142.4615  160.1323 C.3     1  UNL1        0.0746
      7 C         141.4109  140.2474  157.9160 C.2     1  UNL1        0.2529
      8 O         142.1802  139.7630  159.1091 O.2     1  UNL1       -0.2724
      9 N         141.1790  139.4825  156.6466 N.am    1  UNL1       -0.1907
     10 C         140.3632  140.3441  155.7288 C.2     1  UNL1        0.3231
     11 O         139.9009  139.9734  154.3508 O.2     1  UNL1       -0.2511
     12 N         140.0909  141.6413  156.4310 N.am    1  UNL1       -0.2071
     13 C         141.6758  138.0991  156.3475 C.ar    1  UNL1        0.0622
     14 C         140.7027  137.0113  156.0017 C.ar    1  UNL1        0.0154
     15 C         141.1995  135.6279  155.7026 C.ar    1  UNL1        0.0013
     16 C         142.6693  135.3324  155.7492 C.ar    1  UNL1        0.0001
     17 C         143.6424  136.4203  156.0950 C.ar    1  UNL1        0.0013
     18 C         143.1456  137.8037  156.3941 C.ar    1  UNL1        0.0154
     19 C         143.1660  133.9490  155.4501 C.ar    1  UNL1        0.0000
     20 C         142.6832  133.2268  154.2272 C.ar    1  UNL1        0.0000
     21 C         143.1800  131.8435  153.9281 C.ar    1  UNL1        0.0011
     22 C         144.1595  131.1822  154.8519 C.ar    1  UNL1        0.0140
     23 C         144.6423  131.9044  156.0748 C.ar    1  UNL1        0.0011
     24 C         144.1455  133.2878  156.3739 C.ar    1  UNL1        0.0000
     25 C         144.6563  129.7988  154.5528 C.2     1  UNL1        0.0729
     26 O         144.7000  129.3076  153.1362 O.co2   1  UNL1       -0.5446
     27 O         145.1093  128.9066  155.6703 O.co2   1  UNL1       -0.5446
     28 C         139.3084  142.7956  155.8785 C.ar    1  UNL1        0.2276
     29 N         140.0173  143.9118  155.1704 N.ar    1  UNL1       -0.2117
     30 C         139.2348  145.0661  154.6179 C.ar    1  UNL1        0.1034
     31 C         137.7433  145.1043  154.7735 C.ar    1  UNL1        0.0414
     32 C         137.0344  143.9880  155.4816 C.ar    1  UNL1        0.1034
     33 N         137.8170  142.8337  156.0341 N.ar    1  UNL1       -0.2117
     34 C         140.6745  144.8337  160.8923 C.3     1  UNL1        0.1183
     35 C         141.9695  145.1590  163.5788 C.3     1  UNL1        0.0323
     36 C         140.5106  144.8233  163.4852 C.ar    1  UNL1       -0.0069
     37 C         139.6991  144.6503  164.7348 C.ar    1  UNL1       -0.0015
     38 C         138.2402  144.3147  164.6413 C.ar    1  UNL1        0.0203
     39 C         137.5926  144.1520  163.2981 C.ar    1  UNL1        0.0985
     40 N         138.4041  144.3251  162.0484 N.ar    1  UNL1       -0.2471
     41 C         139.8630  144.6607  162.1419 C.ar    1  UNL1        0.0712
@<TRIPOS>UNITY_ATOM_ATTR
26 1
charge -1
@<TRIPOS>BOND
     1    35    36    1
     2    36    37   ar
     3    37    38   ar
     4    38    39   ar
     5    39    40   ar
     6    40    41   ar
     7    41    34    1
     8    34     1    1
     9     1     2    1
    10     2     3    1
    11     3     4    1
    12     4     5    1
    13     5     6    1
    14     4     7    1
    15     7     8    2
    16     7     9   am
    17     9    13    1
    18    13    14   ar
    19    14    15   ar
    20    15    16   ar
    21    16    19    1
    22    19    20   ar
    23    20    21   ar
    24    21    22   ar
    25    22    25    1
    26    25    26   ar
    27    25    27   ar
    28    22    23   ar
    29    23    24   ar
    30    16    17   ar
    31    17    18   ar
    32     9    10   am
    33    10    11    2
    34    10    12   am
    35    12    28    1
    36    28    29   ar
    37    29    30   ar
    38    30    31   ar
    39    31    32   ar
    40    32    33   ar
    41    41    36   ar
    42     6     1    1
    43    18    13   ar
    44    33    28   ar
    45    12     4    1
    46    24    19   ar
@<TRIPOS>MOLECULE
*****
 41 46 0 0 0
SMALL
GASTEIGER

@<TRIPOS>ATOM
      1 N         138.6886  142.0367  160.3576 N.3     1  UNL1       -0.2676
      2 C         138.4285  142.4795  158.9483 C.3     1  UNL1        0.0746
      3 C         138.8432  141.6083  157.7998 C.3     1  UNL1        0.0450
      4 C         139.5179  140.2943  158.0607 C.3     1  UNL1        0.1405
      5 C         139.7780  139.8515  159.4700 C.3     1  UNL1        0.0450
      6 C         139.3633  140.7227  160.6185 C.3     1  UNL1        0.0746
      7 C         140.1983  138.9616  158.1658 C.2     1  UNL1        0.2529
      8 O         140.5835  138.2661  159.4378 O.2     1  UNL1       -0.2724
      9 N         140.4260  138.4464  156.7754 N.am    1  UNL1       -0.1907
     10 C         139.8862  139.4608  155.8111 C.2     1  UNL1        0.3231
     11 O         139.9045  139.3522  154.3152 O.2     1  UNL1       -0.2511
     12 N         139.3251  140.6028  156.6054 N.am    1  UNL1       -0.2071
     13 C         141.0787  137.1454  156.4131 C.ar    1  UNL1        0.0622
     14 C         140.4311  136.2345  155.4128 C.ar    1  UNL1        0.0154
     15 C         141.0838  134.9335  155.0504 C.ar    1  UNL1        0.0013
     16 C         142.3841  134.5434  155.6884 C.ar    1  UNL1        0.0001
     17 C         143.0317  135.4544  156.6888 C.ar    1  UNL1        0.0013
     18 C         142.3790  136.7554  157.0511 C.ar    1  UNL1        0.0154
     19 C         143.0368  133.2424  155.3260 C.ar    1  UNL1        0.0000
     20 C         144.0847  132.6535  156.2233 C.ar    1  UNL1        0.0000
     21 C         144.7375  131.3525  155.8610 C.ar    1  UNL1        0.0011
     22 C         144.3422  130.6403  154.6013 C.ar    1  UNL1        0.0140
     23 C         143.2943  131.2292  153.7040 C.ar    1  UNL1        0.0011
     24 C         142.6416  132.5303  154.0664 C.ar    1  UNL1        0.0000
     25 C         144.9949  129.3393  154.2390 C.2     1  UNL1        0.0729
     26 O         145.3979  128.3767  155.3165 O.co2   1  UNL1       -0.5446
     27 O         145.2447  129.0009  152.7991 O.co2   1  UNL1       -0.5446
     28 C         138.6836  141.8367  156.0433 C.ar    1  UNL1        0.2276
     29 N         139.5231  143.0360  155.7165 N.ar    1  UNL1       -0.2117
     30 C         138.8816  144.2699  155.1544 C.ar    1  UNL1        0.1034
     31 C         137.4006  144.3045  154.9190 C.ar    1  UNL1        0.0414
     32 C         136.5611  143.1051  155.2457 C.ar    1  UNL1        0.1034
     33 N         137.2026  141.8713  155.8079 N.ar    1  UNL1       -0.2117
     34 C         138.2739  142.9079  161.5062 C.3     1  UNL1        0.1183
     35 C         137.7487  143.6673  164.3605 C.3     1  UNL1        0.0323
     36 C         139.0454  144.0478  163.7097 C.ar    1  UNL1       -0.0069
     37 C         140.0795  144.8080  164.4859 C.ar    1  UNL1       -0.0015
     38 C         141.3763  145.1885  163.8350 C.ar    1  UNL1        0.0203
     39 C         141.6389  144.8088  162.4079 C.ar    1  UNL1        0.0985
     40 N         140.6048  144.0486  161.6315 N.ar    1  UNL1       -0.2471
     41 C         139.3080  143.6681  162.2824 C.ar    1  UNL1        0.0712
@<TRIPOS>UNITY_ATOM_ATTR
26 1
charge -1
@<TRIPOS>BOND
     1    35    36    1
     2    36    37   ar
     3    37    38   ar
     4    38    39   ar
     5    39    40   ar
     6    40    41   ar
     7    41    34    1
     8    34     1    1
     9     1     2    1
    10     2     3    1
    11     3     4    1
    12     4     5    1
    13     5     6    1
    14     4     7    1
    15     7     8    2
    16     7     9   am
    17     9    13    1
    18    13    14   ar
    19    14    15   ar
    20    15    16   ar
    21    16    19    1
    22    19    20   ar
    23    20    21   ar
    24    21    22   ar
    25    22    25    1
    26    25    26   ar
    27    25    27   ar
    28    22    23   ar
    29    23    24   ar
    30    16    17   ar
    31    17    18   ar
    32     9    10   am
    33    10    11    2
    34    10    12   am
    35    12    28    1
    36    28    29   ar
    37    29    30   ar
    38    30    31   ar
    39    31    32   ar
    40    32    33   ar
    41    41    36   ar
    42     6     1    1
    43    18    13   ar
    44    33    28   ar
    45    12     4    1
    46    24    19   ar
@<TRIPOS>MOLECULE
*****
 41 46 0 0 0
SMALL
GASTEIGER

@<TRIPOS>ATOM
      1 N         143.0895  141.6863  155.9986 N.3     1  UNL1       -0.2676
      2 C         142.7297  140.2330  156.0894 C.3     1  UNL1        0.0746
      3 C         142.2931  139.6490  157.4002 C.3     1  UNL1        0.0450
      4 C         142.2163  140.5183  158.6202 C.3     1  UNL1        0.1405
      5 C         142.5761  141.9716  158.5294 C.3     1  UNL1        0.0450
      6 C         143.0127  142.5556  157.2186 C.3     1  UNL1        0.0746
      7 C         142.0919  141.2598  159.9182 C.2     1  UNL1        0.2529
      8 O         142.3823  142.7157  160.1331 O.2     1  UNL1       -0.2724
      9 N         141.6262  140.2899  160.9634 N.am    1  UNL1       -0.1907
     10 C         141.4628  138.9489  160.3114 C.2     1  UNL1        0.3231
     11 O         141.0135  137.6882  160.9887 O.2     1  UNL1       -0.2511
     12 N         141.8275  139.0900  158.8633 N.am    1  UNL1       -0.2071
     13 C         141.3690  140.6056  162.4071 C.ar    1  UNL1        0.0622
     14 C         140.0201  141.1001  162.8379 C.ar    1  UNL1        0.0154
     15 C         139.7630  141.4157  164.2816 C.ar    1  UNL1        0.0013
     16 C         140.8548  141.2370  165.2944 C.ar    1  UNL1        0.0001
     17 C         142.2038  140.7425  164.8636 C.ar    1  UNL1        0.0013
     18 C         142.4609  140.4268  163.4199 C.ar    1  UNL1        0.0154
     19 C         140.5976  141.5527  166.7381 C.ar    1  UNL1        0.0000
     20 C         140.0878  140.4849  167.6601 C.ar    1  UNL1        0.0000
     21 C         139.8307  140.8006  169.1037 C.ar    1  UNL1        0.0011
     22 C         140.0833  142.1841  169.6255 C.ar    1  UNL1        0.0140
     23 C         140.5931  143.2519  168.7035 C.ar    1  UNL1        0.0011
     24 C         140.8503  142.9361  167.2598 C.ar    1  UNL1        0.0000
     25 C         139.8262  142.4998  171.0692 C.2     1  UNL1        0.0729
     26 O         140.6104  141.8020  172.1407 O.co2   1  UNL1       -0.5446
     27 O         138.7848  143.5132  171.4413 O.co2   1  UNL1       -0.5446
     28 C         141.8070  137.9952  157.8382 C.ar    1  UNL1        0.2276
     29 N         143.0186  137.1344  157.6358 N.ar    1  UNL1       -0.2117
     30 C         142.9980  136.0396  156.6106 C.ar    1  UNL1        0.1034
     31 C         141.7658  135.8055  155.7878 C.ar    1  UNL1        0.0414
     32 C         140.5542  136.6663  155.9902 C.ar    1  UNL1        0.1034
     33 N         140.5748  137.7611  157.0154 N.ar    1  UNL1       -0.2117
     34 C         143.5261  142.2705  154.6878 C.3     1  UNL1        0.1183
     35 C         145.0813  144.5304  153.4738 C.3     1  UNL1        0.0323
     36 C         143.5828  144.5859  153.5106 C.ar    1  UNL1       -0.0069
     37 C         142.8619  145.7713  152.9405 C.ar    1  UNL1       -0.0015
     38 C         141.3634  145.8268  152.9774 C.ar    1  UNL1        0.0203
     39 C         140.5858  144.6968  153.5843 C.ar    1  UNL1        0.0985
     40 N         141.3067  143.5113  154.1545 N.ar    1  UNL1       -0.2471
     41 C         142.8052  143.4559  154.1176 C.ar    1  UNL1        0.0712
@<TRIPOS>UNITY_ATOM_ATTR
26 1
charge -1
@<TRIPOS>BOND
     1    35    36    1
     2    36    37   ar
     3    37    38   ar
     4    38    39   ar
     5    39    40   ar
     6    40    41   ar
     7    41    34    1
     8    34     1    1
     9     1     2    1
    10     2     3    1
    11     3     4    1
    12     4     5    1
    13     5     6    1
    14     4     7    1
    15     7     8    2
    16     7     9   am
    17     9    13    1
    18    13    14   ar
    19    14    15   ar
    20    15    16   ar
    21    16    19    1
    22    19    20   ar
    23    20    21   ar
    24    21    22   ar
    25    22    25    1
    26    25    26   ar
    27    25    27   ar
    28    22    23   ar
    29    23    24   ar
    30    16    17   ar
    31    17    18   ar
    32     9    10   am
    33    10    11    2
    34    10    12   am
    35    12    28    1
    36    28    29   ar
    37    29    30   ar
    38    30    31   ar
    39    31    32   ar
    40    32    33   ar
    41    41    36   ar
    42     6     1    1
    43    18    13   ar
    44    33    28   ar
    45    12     4    1
    46    24    19   ar
