@<TRIPOS>MOLECULE
*****
 26 28 0 0 0
SMALL
GASTEIGER

@<TRIPOS>ATOM
      1 C         140.1241  143.2570  164.0877 C.2     1  UNL1        0.0596
      2 C         140.8481  142.8633  162.8343 C.2     1  UNL1        0.0324
      3 C         140.7026  143.6918  161.5924 C.2     1  UNL1        0.0889
      4 N         141.2890  143.5528  160.2188 N.2     1  UNL1       -0.2236
      5 C         140.7818  144.6892  159.3812 C.2     1  UNL1        0.1859
      6 N         139.8821  145.5305  160.2372 N.2     1  UNL1       -0.2387
      7 C         139.8331  144.9140  161.6038 C.3     1  UNL1        0.1679
      8 C         139.1091  145.3077  162.8571 C.2     1  UNL1        0.0164
      9 C         139.2546  144.4792  164.0990 C.2     1  UNL1        0.0690
     10 CL        138.5306  144.8729  165.3524 Cl      1  UNL1       -0.0812
     11 C         138.2223  140.9975  164.6148 C.3     1  UNL1        0.0229
     12 C         139.3187  141.2987  165.5932 C.3     1  UNL1        0.0888
     13 C         139.4642  140.4702  166.8351 C.3     1  UNL1        0.0922
     14 N         140.5606  140.7714  167.8135 N.3     1  UNL1       -0.2651
     15 C         141.5115  141.9012  167.5499 C.3     1  UNL1        0.0939
     16 C         141.3660  142.7297  166.3080 C.3     1  UNL1        0.1081
     17 N         140.2696  142.4284  165.3296 N.pl3   1  UNL1       -0.3056
     18 C         140.7061  139.9429  169.0553 C.3     1  UNL1        0.1454
     19 C         139.8897  140.2651  170.2718 C.3     1  UNL1        0.3343
     20 F         138.3921  140.2155  170.2048 F       1  UNL1       -0.1969
     21 F         140.5711  140.6368  171.5554 F       1  UNL1       -0.1969
     22 S         141.1158  144.9403  157.9406 S.3     1  UNL1       -0.0777
     23 C         140.0377  144.8809  156.8994 C.3     1  UNL1        0.0461
     24 C         140.0364  143.3834  156.9862 C.3     1  UNL1        0.0113
     25 C         140.0390  146.3783  156.8126 C.3     1  UNL1        0.0113
     26 C         138.9596  144.8215  155.8582 C.3     1  UNL1        0.0113
@<TRIPOS>BOND
     1    12    11    1
     2    12    13    1
     3    13    14    1
     4    14    18    1
     5    18    19    1
     6    19    20    1
     7    19    21    1
     8    14    15    1
     9    15    16    1
    10    16    17    1
    11    17     1    1
    12     1     2    2
    13     2     3    1
    14     3     4    2
    15     4     5    1
    16     5    22    1
    17    22    23    1
    18    23    24    1
    19    23    25    1
    20    23    26    1
    21     5     6    2
    22     6     7    1
    23     7     8    1
    24     8     9    2
    25     9    10    1
    26    17    12    1
    27     9     1    1
    28     7     3    1
@<TRIPOS>MOLECULE
*****
 26 28 0 0 0
SMALL
GASTEIGER

@<TRIPOS>ATOM
      1 C         140.4922  139.3222  164.3848 C.2     1  UNL1        0.0596
      2 C         141.1372  139.9130  163.1662 C.2     1  UNL1        0.0324
      3 C         140.7571  139.4185  161.8021 C.2     1  UNL1        0.0889
      4 N         141.2193  139.8068  160.4289 N.2     1  UNL1       -0.2236
      5 C         140.4798  138.9614  159.4347 C.2     1  UNL1        0.1859
      6 N         139.5606  138.0507  160.1933 N.2     1  UNL1       -0.2387
      7 C         139.7319  138.3332  161.6565 C.3     1  UNL1        0.1679
      8 C         139.0869  137.7424  162.8751 C.2     1  UNL1        0.0164
      9 C         139.4671  138.2369  164.2392 C.2     1  UNL1        0.0690
     10 CL        138.8220  137.6461  165.4578 Cl      1  UNL1       -0.0812
     11 C         142.9373  138.2400  165.7451 C.3     1  UNL1        0.0229
     12 C         142.0949  139.2756  166.4292 C.3     1  UNL1        0.0888
     13 C         142.4750  139.7701  167.7933 C.3     1  UNL1        0.0922
     14 N         141.6326  140.8057  168.4774 N.3     1  UNL1       -0.2651
     15 C         140.4101  141.3468  167.7972 C.3     1  UNL1        0.0939
     16 C         140.0299  140.8523  166.4331 C.3     1  UNL1        0.1081
     17 N         140.8724  139.8167  165.7490 N.pl3   1  UNL1       -0.3056
     18 C         142.0128  141.3002  169.8415 C.3     1  UNL1        0.1454
     19 C         142.9061  142.4969  169.9835 C.3     1  UNL1        0.3343
     20 F         144.3849  142.3581  169.7739 F       1  UNL1       -0.1969
     21 F         142.3205  143.8323  170.3350 F       1  UNL1       -0.1969
     22 S         140.6327  139.0170  157.9435 S.3     1  UNL1       -0.0777
     23 C         141.0293  137.7859  157.1838 C.3     1  UNL1        0.0461
     24 C         139.6503  137.7023  156.5995 C.3     1  UNL1        0.0113
     25 C         142.4083  137.8695  157.7682 C.3     1  UNL1        0.0113
     26 C         141.4259  136.5548  156.4241 C.3     1  UNL1        0.0113
@<TRIPOS>BOND
     1    12    11    1
     2    12    13    1
     3    13    14    1
     4    14    18    1
     5    18    19    1
     6    19    20    1
     7    19    21    1
     8    14    15    1
     9    15    16    1
    10    16    17    1
    11    17     1    1
    12     1     2    2
    13     2     3    1
    14     3     4    2
    15     4     5    1
    16     5    22    1
    17    22    23    1
    18    23    24    1
    19    23    25    1
    20    23    26    1
    21     5     6    2
    22     6     7    1
    23     7     8    1
    24     8     9    2
    25     9    10    1
    26    17    12    1
    27     9     1    1
    28     7     3    1
@<TRIPOS>MOLECULE
*****
 26 28 0 0 0
SMALL
GASTEIGER

@<TRIPOS>ATOM
      1 C         140.4668  139.0881  163.7607 C.2     1  UNL1        0.0596
      2 C         141.1493  140.0114  164.7261 C.2     1  UNL1        0.0324
      3 C         140.6180  140.1644  166.1205 C.2     1  UNL1        0.0889
      4 N         141.0760  140.9934  167.2837 N.2     1  UNL1       -0.2236
      5 C         140.1455  140.7355  168.4316 C.2     1  UNL1        0.1859
      6 N         139.1124  139.7472  167.9779 N.2     1  UNL1       -0.2387
      7 C         139.4044  139.3942  166.5495 C.3     1  UNL1        0.1679
      8 C         138.7221  138.4710  165.5841 C.2     1  UNL1        0.0164
      9 C         139.2533  138.3179  164.1897 C.2     1  UNL1        0.0690
     10 CL        138.5709  137.3946  163.2243 Cl      1  UNL1       -0.0812
     11 C         139.4004  140.8147  161.5514 C.3     1  UNL1        0.0229
     12 C         140.4649  139.7984  161.2616 C.3     1  UNL1        0.0888
     13 C         140.9961  139.6453  159.8672 C.3     1  UNL1        0.0922
     14 N         142.0606  138.6289  159.5775 N.3     1  UNL1       -0.2651
     15 C         142.5938  137.7656  160.6821 C.3     1  UNL1        0.0939
     16 C         142.0626  137.9187  162.0765 C.3     1  UNL1        0.1081
     17 N         140.9981  138.9350  162.3662 N.pl3   1  UNL1       -0.3056
     18 C         142.5917  138.4760  158.1831 C.3     1  UNL1        0.1454
     19 C         142.2799  137.2395  157.3932 C.3     1  UNL1        0.3343
     20 F         143.3182  136.1684  157.2356 F       1  UNL1       -0.1969
     21 F         140.9299  137.0741  156.7607 F       1  UNL1       -0.1969
     22 S         140.2328  141.3569  169.7940 S.3     1  UNL1       -0.0777
     23 C         141.3986  142.2328  170.1457 C.3     1  UNL1        0.0461
     24 C         142.1649  141.0281  170.6056 C.3     1  UNL1        0.0113
     25 C         140.6323  143.4375  169.6857 C.3     1  UNL1        0.0113
     26 C         142.5645  143.1086  170.4973 C.3     1  UNL1        0.0113
@<TRIPOS>BOND
     1    12    11    1
     2    12    13    1
     3    13    14    1
     4    14    18    1
     5    18    19    1
     6    19    20    1
     7    19    21    1
     8    14    15    1
     9    15    16    1
    10    16    17    1
    11    17     1    1
    12     1     2    2
    13     2     3    1
    14     3     4    2
    15     4     5    1
    16     5    22    1
    17    22    23    1
    18    23    24    1
    19    23    25    1
    20    23    26    1
    21     5     6    2
    22     6     7    1
    23     7     8    1
    24     8     9    2
    25     9    10    1
    26    17    12    1
    27     9     1    1
    28     7     3    1
@<TRIPOS>MOLECULE
*****
 26 28 0 0 0
SMALL
GASTEIGER

@<TRIPOS>ATOM
      1 C         142.0539  143.3755  163.2161 C.2     1  UNL1        0.0596
      2 C         141.0853  143.0380  164.3106 C.2     1  UNL1        0.0324
      3 C         141.5904  142.7134  165.6852 C.2     1  UNL1        0.0889
      4 N         140.8805  142.3459  166.9544 N.2     1  UNL1       -0.2236
      5 C         141.9153  142.1316  168.0189 C.2     1  UNL1        0.1859
      6 N         143.2648  142.3667  167.4076 N.2     1  UNL1       -0.2387
      7 C         143.0639  142.7263  165.9653 C.3     1  UNL1        0.1679
      8 C         144.0325  143.0638  164.8707 C.2     1  UNL1        0.0164
      9 C         143.5274  143.3884  163.4961 C.2     1  UNL1        0.0690
     10 CL        144.4960  143.7260  162.4016 Cl      1  UNL1       -0.0812
     11 C         141.9294  141.2337  161.1192 C.3     1  UNL1        0.0229
     12 C         141.4866  142.6292  160.7929 C.3     1  UNL1        0.0888
     13 C         140.9816  142.9539  159.4183 C.3     1  UNL1        0.0922
     14 N         140.5388  144.3494  159.0922 N.3     1  UNL1       -0.2651
     15 C         140.6011  145.4204  160.1406 C.3     1  UNL1        0.0939
     16 C         141.1061  145.0957  161.5152 C.3     1  UNL1        0.1081
     17 N         141.5489  143.7002  161.8414 N.pl3   1  UNL1       -0.3056
     18 C         140.0338  144.6740  157.7176 C.3     1  UNL1        0.1454
     19 C         140.4103  145.9722  157.0673 C.3     1  UNL1        0.3343
     20 F         141.7443  146.1161  156.3966 F       1  UNL1       -0.1969
     21 F         139.4528  147.1267  157.0879 F       1  UNL1       -0.1969
     22 S         141.6477  141.7493  169.4445 S.3     1  UNL1       -0.0777
     23 C         140.3364  141.1254  169.8202 C.3     1  UNL1        0.0461
     24 C         140.8440  139.7876  169.3703 C.3     1  UNL1        0.0113
     25 C         139.8288  142.4633  170.2701 C.3     1  UNL1        0.0113
     26 C         139.0251  140.5015  170.1959 C.3     1  UNL1        0.0113
@<TRIPOS>BOND
     1    12    11    1
     2    12    13    1
     3    13    14    1
     4    14    18    1
     5    18    19    1
     6    19    20    1
     7    19    21    1
     8    14    15    1
     9    15    16    1
    10    16    17    1
    11    17     1    1
    12     1     2    2
    13     2     3    1
    14     3     4    2
    15     4     5    1
    16     5    22    1
    17    22    23    1
    18    23    24    1
    19    23    25    1
    20    23    26    1
    21     5     6    2
    22     6     7    1
    23     7     8    1
    24     8     9    2
    25     9    10    1
    26    17    12    1
    27     9     1    1
    28     7     3    1
@<TRIPOS>MOLECULE
*****
 26 28 0 0 0
SMALL
GASTEIGER

@<TRIPOS>ATOM
      1 C         140.9973  143.3366  163.1091 C.2     1  UNL1        0.0596
      2 C         141.5278  143.1623  161.7169 C.2     1  UNL1        0.0324
      3 C         141.0936  144.0962  160.6264 C.2     1  UNL1        0.0889
      4 N         141.4445  144.1709  159.1700 N.2     1  UNL1       -0.2236
      5 C         140.6967  145.3253  158.5716 C.2     1  UNL1        0.1859
      6 N         139.8836  145.9642  159.6583 N.2     1  UNL1       -0.2387
      7 C         140.1289  145.2046  160.9282 C.3     1  UNL1        0.1679
      8 C         139.5985  145.3789  162.3204 C.2     1  UNL1        0.0164
      9 C         140.0327  144.4449  163.4109 C.2     1  UNL1        0.0690
     10 CL        139.5023  144.6192  164.8031 Cl      1  UNL1       -0.0812
     11 C         143.5594  143.8426  164.5855 C.3     1  UNL1        0.0229
     12 C         142.7127  142.6555  164.9378 C.3     1  UNL1        0.0888
     13 C         143.1469  141.7215  166.0283 C.3     1  UNL1        0.0922
     14 N         142.3001  140.5346  166.3805 N.3     1  UNL1       -0.2651
     15 C         141.0191  140.2816  165.6423 C.3     1  UNL1        0.0939
     16 C         140.5848  141.2156  164.5519 C.3     1  UNL1        0.1081
     17 N         141.4316  142.4026  164.1996 N.pl3   1  UNL1       -0.3056
     18 C         142.7344  139.6006  167.4709 C.3     1  UNL1        0.1454
     19 C         142.2899  139.8388  168.8837 C.3     1  UNL1        0.3343
     20 F         140.8754  139.5420  169.2851 F       1  UNL1       -0.1969
     21 F         143.2600  140.3738  169.8949 F       1  UNL1       -0.1969
     22 S         140.7522  145.7639  157.1383 S.3     1  UNL1       -0.0777
     23 C         139.5417  145.6238  156.2636 C.3     1  UNL1        0.0461
     24 C         139.3442  147.1103  156.2988 C.3     1  UNL1        0.0113
     25 C         139.7392  144.1373  156.2285 C.3     1  UNL1        0.0113
     26 C         138.3312  145.4837  155.3890 C.3     1  UNL1        0.0113
@<TRIPOS>BOND
     1    12    11    1
     2    12    13    1
     3    13    14    1
     4    14    18    1
     5    18    19    1
     6    19    20    1
     7    19    21    1
     8    14    15    1
     9    15    16    1
    10    16    17    1
    11    17     1    1
    12     1     2    2
    13     2     3    1
    14     3     4    2
    15     4     5    1
    16     5    22    1
    17    22    23    1
    18    23    24    1
    19    23    25    1
    20    23    26    1
    21     5     6    2
    22     6     7    1
    23     7     8    1
    24     8     9    2
    25     9    10    1
    26    17    12    1
    27     9     1    1
    28     7     3    1
@<TRIPOS>MOLECULE
*****
 26 28 0 0 0
SMALL
GASTEIGER

@<TRIPOS>ATOM
      1 C         140.1417  143.2744  162.8710 C.2     1  UNL1        0.0596
      2 C         141.3123  142.4888  163.3836 C.2     1  UNL1        0.0324
      3 C         141.3821  142.1063  164.8324 C.2     1  UNL1        0.0889
      4 N         142.4033  141.3405  165.6201 N.2     1  UNL1       -0.2236
      5 C         141.9337  141.2701  167.0430 C.2     1  UNL1        0.1859
      6 N         140.6223  141.9925  167.1346 N.2     1  UNL1       -0.2387
      7 C         140.2814  142.5093  165.7684 C.3     1  UNL1        0.1679
      8 C         139.1108  143.2948  165.2556 C.2     1  UNL1        0.0164
      9 C         139.0410  143.6773  163.8069 C.2     1  UNL1        0.0690
     10 CL        137.8704  144.4628  163.2942 Cl      1  UNL1       -0.0812
     11 C         138.6610  141.5317  160.9291 C.3     1  UNL1        0.0229
     12 C         139.3315  142.7855  160.4512 C.3     1  UNL1        0.0888
     13 C         139.2617  143.1681  159.0025 C.3     1  UNL1        0.0922
     14 N         139.9322  144.4219  158.5247 N.3     1  UNL1       -0.2651
     15 C         140.6725  145.2933  159.4956 C.3     1  UNL1        0.0939
     16 C         140.7423  144.9107  160.9443 C.3     1  UNL1        0.1081
     17 N         140.0718  143.6569  161.4221 N.pl3   1  UNL1       -0.3056
     18 C         139.8623  144.8044  157.0760 C.3     1  UNL1        0.1454
     19 C         140.1499  146.2160  156.6583 C.3     1  UNL1        0.3343
     20 F         141.2970  146.5066  155.7364 F       1  UNL1       -0.1969
     21 F         139.2903  147.3372  157.1624 F       1  UNL1       -0.1969
     22 S         142.6499  140.5958  168.1754 S.3     1  UNL1       -0.0777
     23 C         142.3113  140.9491  169.5933 C.3     1  UNL1        0.0461
     24 C         141.4226  139.7439  169.6815 C.3     1  UNL1        0.0113
     25 C         143.1999  142.1543  169.5052 C.3     1  UNL1        0.0113
     26 C         141.9727  141.3024  171.0113 C.3     1  UNL1        0.0113
@<TRIPOS>BOND
     1    12    11    1
     2    12    13    1
     3    13    14    1
     4    14    18    1
     5    18    19    1
     6    19    20    1
     7    19    21    1
     8    14    15    1
     9    15    16    1
    10    16    17    1
    11    17     1    1
    12     1     2    2
    13     2     3    1
    14     3     4    2
    15     4     5    1
    16     5    22    1
    17    22    23    1
    18    23    24    1
    19    23    25    1
    20    23    26    1
    21     5     6    2
    22     6     7    1
    23     7     8    1
    24     8     9    2
    25     9    10    1
    26    17    12    1
    27     9     1    1
    28     7     3    1
@<TRIPOS>MOLECULE
*****
 26 28 0 0 0
SMALL
GASTEIGER

@<TRIPOS>ATOM
      1 C         140.5651  139.6574  163.3215 C.2     1  UNL1        0.0596
      2 C         140.9606  140.4641  164.5228 C.2     1  UNL1        0.0324
      3 C         140.2967  140.2156  165.8447 C.2     1  UNL1        0.0889
      4 N         140.4767  140.8482  167.1928 N.2     1  UNL1       -0.2236
      5 C         139.5286  140.1839  168.1467 C.2     1  UNL1        0.1859
      6 N         138.7628  139.1408  167.3882 N.2     1  UNL1       -0.2387
      7 C         139.2375  139.1604  165.9654 C.3     1  UNL1        0.1679
      8 C         138.8421  138.3537  164.7642 C.2     1  UNL1        0.0164
      9 C         139.5059  138.6023  163.4423 C.2     1  UNL1        0.0690
     10 CL        139.1105  137.7955  162.2410 Cl      1  UNL1       -0.0812
     11 C         142.9997  138.0852  162.5465 C.3     1  UNL1        0.0229
     12 C         142.4463  139.1198  161.6120 C.3     1  UNL1        0.0888
     13 C         143.1101  139.3684  160.2901 C.3     1  UNL1        0.0922
     14 N         142.5566  140.4030  159.3556 N.3     1  UNL1       -0.2651
     15 C         141.3393  141.1891  159.7431 C.3     1  UNL1        0.0939
     16 C         140.6755  140.9406  161.0651 C.3     1  UNL1        0.1081
     17 N         141.2290  139.9059  161.9995 N.pl3   1  UNL1       -0.3056
     18 C         143.2205  140.6515  158.0337 C.3     1  UNL1        0.1454
     19 C         144.5087  141.4176  157.9736 C.3     1  UNL1        0.3343
     20 F         145.5761  141.0150  156.9997 F       1  UNL1       -0.1969
     21 F         144.7296  142.5863  158.8876 F       1  UNL1       -0.1969
     22 S         139.3736  140.5062  169.6035 S.3     1  UNL1       -0.0777
     23 C         140.5196  141.1024  170.3658 C.3     1  UNL1        0.0461
     24 C         141.2158  139.7738  170.3584 C.3     1  UNL1        0.0113
     25 C         139.8235  142.4310  170.3732 C.3     1  UNL1        0.0113
     26 C         141.6657  141.6987  171.1281 C.3     1  UNL1        0.0113
@<TRIPOS>BOND
     1    12    11    1
     2    12    13    1
     3    13    14    1
     4    14    18    1
     5    18    19    1
     6    19    20    1
     7    19    21    1
     8    14    15    1
     9    15    16    1
    10    16    17    1
    11    17     1    1
    12     1     2    2
    13     2     3    1
    14     3     4    2
    15     4     5    1
    16     5    22    1
    17    22    23    1
    18    23    24    1
    19    23    25    1
    20    23    26    1
    21     5     6    2
    22     6     7    1
    23     7     8    1
    24     8     9    2
    25     9    10    1
    26    17    12    1
    27     9     1    1
    28     7     3    1
@<TRIPOS>MOLECULE
*****
 26 28 0 0 0
SMALL
GASTEIGER

@<TRIPOS>ATOM
      1 C         140.4525  139.5979  164.1451 C.2     1  UNL1        0.0596
      2 C         139.9305  140.6356  163.1959 C.2     1  UNL1        0.0324
      3 C         139.5531  140.2497  161.7965 C.2     1  UNL1        0.0889
      4 N         139.0146  141.0474  160.6460 N.2     1  UNL1       -0.2236
      5 C         138.8263  140.1169  159.4846 C.2     1  UNL1        0.1859
      6 N         139.2485  138.7441  159.9173 N.2     1  UNL1       -0.2387
      7 C         139.6977  138.8262  161.3461 C.3     1  UNL1        0.1679
      8 C         140.2196  137.7886  162.2953 C.2     1  UNL1        0.0164
      9 C         140.5970  138.1745  163.6948 C.2     1  UNL1        0.0690
     10 CL        141.1190  137.1368  164.6440 Cl      1  UNL1       -0.0812
     11 C         138.4750  139.2688  166.3769 C.3     1  UNL1        0.0229
     12 C         139.8412  139.8193  166.6606 C.3     1  UNL1        0.0888
     13 C         140.2187  140.2052  168.0601 C.3     1  UNL1        0.0922
     14 N         141.5849  140.7556  168.3437 N.3     1  UNL1       -0.2651
     15 C         142.5737  140.9201  167.2278 C.3     1  UNL1        0.0939
     16 C         142.1962  140.5342  165.8283 C.3     1  UNL1        0.1081
     17 N         140.8300  139.9838  165.5447 N.pl3   1  UNL1       -0.3056
     18 C         141.9622  141.1415  169.7432 C.3     1  UNL1        0.1454
     19 C         142.8494  142.3275  169.9808 C.3     1  UNL1        0.3343
     20 F         142.2461  143.6652  170.2913 F       1  UNL1       -0.1969
     21 F         144.3399  142.1756  169.9080 F       1  UNL1       -0.1969
     22 S         138.3070  140.4932  158.1286 S.3     1  UNL1       -0.0777
     23 C         138.9817  141.5771  157.3414 C.3     1  UNL1        0.0461
     24 C         140.1864  140.7006  157.1670 C.3     1  UNL1        0.0113
     25 C         137.7771  142.4537  157.5158 C.3     1  UNL1        0.0113
     26 C         139.6565  142.6611  156.5541 C.3     1  UNL1        0.0113
@<TRIPOS>BOND
     1    12    11    1
     2    12    13    1
     3    13    14    1
     4    14    18    1
     5    18    19    1
     6    19    20    1
     7    19    21    1
     8    14    15    1
     9    15    16    1
    10    16    17    1
    11    17     1    1
    12     1     2    2
    13     2     3    1
    14     3     4    2
    15     4     5    1
    16     5    22    1
    17    22    23    1
    18    23    24    1
    19    23    25    1
    20    23    26    1
    21     5     6    2
    22     6     7    1
    23     7     8    1
    24     8     9    2
    25     9    10    1
    26    17    12    1
    27     9     1    1
    28     7     3    1
@<TRIPOS>MOLECULE
*****
 26 28 0 0 0
SMALL
GASTEIGER

@<TRIPOS>ATOM
      1 C         139.4807  140.7498  163.4250 C.2     1  UNL1        0.0596
      2 C         140.0085  141.4266  164.6554 C.2     1  UNL1        0.0324
      3 C         139.7176  140.8524  166.0103 C.2     1  UNL1        0.0889
      4 N         140.1005  141.2952  167.3913 N.2     1  UNL1       -0.2236
      5 C         139.5186  140.3181  168.3693 C.2     1  UNL1        0.1859
      6 N         138.7761  139.2714  167.5928 N.2     1  UNL1       -0.2387
      7 C         138.8990  139.6016  166.1348 C.3     1  UNL1        0.1679
      8 C         138.3713  138.9250  164.9045 C.2     1  UNL1        0.0164
      9 C         138.6622  139.4991  163.5496 C.2     1  UNL1        0.0690
     10 CL        138.1345  138.8224  162.3192 Cl      1  UNL1       -0.0812
     11 C         137.7664  142.9552  162.3309 C.3     1  UNL1        0.0229
     12 C         138.9145  142.4267  161.5230 C.3     1  UNL1        0.0888
     13 C         139.2054  143.0008  160.1681 C.3     1  UNL1        0.0922
     14 N         140.3535  142.4723  159.3603 N.3     1  UNL1       -0.2651
     15 C         141.2107  141.3696  159.9074 C.3     1  UNL1        0.0939
     16 C         140.9197  140.7955  161.2623 C.3     1  UNL1        0.1081
     17 N         139.7717  141.3240  162.0701 N.pl3   1  UNL1       -0.3056
     18 C         140.6443  143.0465  158.0055 C.3     1  UNL1        0.1454
     19 C         140.0165  144.3440  157.5902 C.3     1  UNL1        0.3343
     20 F         140.5001  145.6346  158.1822 F       1  UNL1       -0.1969
     21 F         138.9050  144.3508  156.5829 F       1  UNL1       -0.1969
     22 S         139.6553  140.3772  169.8619 S.3     1  UNL1       -0.0777
     23 C         140.9577  140.7919  170.4800 C.3     1  UNL1        0.0461
     24 C         140.3562  142.1120  170.8616 C.3     1  UNL1        0.0113
     25 C         141.5591  139.4719  170.0983 C.3     1  UNL1        0.0113
     26 C         142.2600  141.2066  171.0980 C.3     1  UNL1        0.0113
@<TRIPOS>BOND
     1    12    11    1
     2    12    13    1
     3    13    14    1
     4    14    18    1
     5    18    19    1
     6    19    20    1
     7    19    21    1
     8    14    15    1
     9    15    16    1
    10    16    17    1
    11    17     1    1
    12     1     2    2
    13     2     3    1
    14     3     4    2
    15     4     5    1
    16     5    22    1
    17    22    23    1
    18    23    24    1
    19    23    25    1
    20    23    26    1
    21     5     6    2
    22     6     7    1
    23     7     8    1
    24     8     9    2
    25     9    10    1
    26    17    12    1
    27     9     1    1
    28     7     3    1
