@<TRIPOS>MOLECULE
*****
 32 36 0 0 0
SMALL
GASTEIGER

@<TRIPOS>ATOM
      1 O         143.1093  140.5312  157.1133 O.2     1  UNL1       -0.2681
      2 C         142.8760  139.2832  157.9121 C.2     1  UNL1        0.2701
      3 N         143.2385  139.2453  159.3671 N.am    1  UNL1       -0.2745
      4 C         143.0052  137.9973  160.1659 C.3     1  UNL1        0.0975
      5 C         143.3677  137.9594  161.6209 C.3     1  UNL1        0.0651
      6 C         143.9636  139.1695  162.2772 C.3     1  UNL1        0.1693
      7 C         144.1969  140.4175  161.4784 C.3     1  UNL1        0.0651
      8 C         143.8344  140.4554  160.0234 C.3     1  UNL1        0.0975
      9 C         142.2801  138.0731  157.2559 C.ar    1  UNL1        0.1763
     10 C         143.0423  136.9115  156.6904 C.ar    1  UNL1        0.0672
     11 C         142.0507  135.9327  156.1350 C.ar    1  UNL1        0.1770
     12 O         140.6756  136.4893  156.3571 O.2     1  UNL1       -0.3533
     13 N         140.8174  137.8122  157.0498 N.ar    1  UNL1       -0.0723
     14 C         142.3769  134.6264  155.4735 C.ar    1  UNL1        0.0372
     15 C         142.0086  134.4006  154.0371 C.ar    1  UNL1        0.0031
     16 C         142.3348  133.0945  153.3756 C.ar    1  UNL1        0.0001
     17 C         143.0293  132.0141  154.1506 C.ar    1  UNL1        0.0000
     18 C         143.3976  132.2400  155.5870 C.ar    1  UNL1        0.0001
     19 C         143.0714  133.5461  156.2485 C.ar    1  UNL1        0.0031
     20 O         144.3261  139.1316  163.7323 O.3     1  UNL1       -0.4791
     21 C         143.2714  139.3598  164.7742 C.ar    1  UNL1        0.1384
     22 C         141.9840  140.0341  164.4030 C.ar    1  UNL1        0.0366
     23 C         140.9294  140.2623  165.4449 C.ar    1  UNL1        0.0002
     24 C         141.1622  139.8161  166.8580 C.ar    1  UNL1       -0.0059
     25 C         142.4495  139.1417  167.2291 C.ar    1  UNL1        0.0002
     26 C         143.5042  138.9136  166.1872 C.ar    1  UNL1        0.0366
     27 C         140.1075  140.0442  167.9000 C.3     1  UNL1        0.0991
     28 N         140.1243  141.2989  168.7220 N.3     1  UNL1       -0.2690
     29 C         140.6498  142.6335  168.2831 C.3     1  UNL1        0.0724
     30 C         140.4689  143.5986  169.4171 C.3     1  UNL1        0.0188
     31 C         139.8315  142.8604  170.5568 C.3     1  UNL1        0.0188
     32 C         139.6185  141.4391  170.1272 C.3     1  UNL1        0.0724
@<TRIPOS>BOND
     1     1     2    2
     2     2     9    1
     3     9    10   ar
     4    10    11   ar
     5    11    14    1
     6    14    15   ar
     7    15    16   ar
     8    16    17   ar
     9    17    18   ar
    10    18    19   ar
    11    11    12   ar
    12    12    13   ar
    13     2     3   am
    14     3     4    1
    15     4     5    1
    16     5     6    1
    17     6    20    1
    18    20    21    1
    19    21    22   ar
    20    22    23   ar
    21    23    24   ar
    22    24    27    1
    23    27    28    1
    24    28    29    1
    25    29    30    1
    26    30    31    1
    27    31    32    1
    28    24    25   ar
    29    25    26   ar
    30     6     7    1
    31     7     8    1
    32    13     9   ar
    33     8     3    1
    34    19    14   ar
    35    26    21   ar
    36    32    28    1
@<TRIPOS>MOLECULE
*****
 32 36 0 0 0
SMALL
GASTEIGER

@<TRIPOS>ATOM
      1 O         137.3698  139.5940  160.8188 O.2     1  UNL1       -0.2681
      2 C         138.6914  139.1273  161.3532 C.2     1  UNL1        0.2701
      3 N         139.8044  138.7859  160.4074 N.am    1  UNL1       -0.2745
      4 C         141.1260  138.3193  160.9418 C.3     1  UNL1        0.0975
      5 C         142.2391  137.9778  159.9961 C.3     1  UNL1        0.0651
      6 C         142.0306  138.1031  158.5159 C.3     1  UNL1        0.1693
      7 C         140.7090  138.5698  157.9815 C.3     1  UNL1        0.0651
      8 C         139.5959  138.9112  158.9273 C.3     1  UNL1        0.0975
      9 C         138.8999  139.0021  162.8334 C.ar    1  UNL1        0.1763
     10 C         139.2044  140.1258  163.7791 C.ar    1  UNL1        0.0672
     11 C         139.3332  139.5494  165.1578 C.ar    1  UNL1        0.1770
     12 O         139.1083  138.0692  165.0643 O.2     1  UNL1       -0.3533
     13 N         138.8405  137.7310  163.6277 N.ar    1  UNL1       -0.0723
     14 C         139.6341  140.3180  166.4103 C.ar    1  UNL1        0.0372
     15 C         139.2771  139.7414  167.7482 C.ar    1  UNL1        0.0031
     16 C         139.5780  140.5100  169.0006 C.ar    1  UNL1        0.0001
     17 C         140.2360  141.8553  168.9152 C.ar    1  UNL1        0.0000
     18 C         140.5930  142.4319  167.5773 C.ar    1  UNL1        0.0001
     19 C         140.2921  141.6633  166.3249 C.ar    1  UNL1        0.0031
     20 O         143.1437  137.7617  157.5701 O.3     1  UNL1       -0.4791
     21 C         143.0898  136.4901  156.7762 C.ar    1  UNL1        0.1384
     22 C         143.2368  135.1672  157.4679 C.ar    1  UNL1        0.0366
     23 C         143.1830  133.8958  156.6739 C.ar    1  UNL1        0.0002
     24 C         142.9821  133.9472  155.1883 C.ar    1  UNL1       -0.0059
     25 C         142.8351  135.2700  154.4967 C.ar    1  UNL1        0.0002
     26 C         142.8890  136.5415  155.2906 C.ar    1  UNL1        0.0366
     27 C         142.9282  132.6756  154.3943 C.3     1  UNL1        0.0991
     28 N         143.1914  131.3604  155.0658 N.3     1  UNL1       -0.2690
     29 C         142.1517  130.4077  155.5770 C.3     1  UNL1        0.0724
     30 C         142.8583  129.2255  156.1712 C.3     1  UNL1        0.0188
     31 C         144.3348  129.4475  156.0271 C.3     1  UNL1        0.0188
     32 C         144.5407  130.7669  155.3440 C.3     1  UNL1        0.0724
@<TRIPOS>BOND
     1     1     2    2
     2     2     9    1
     3     9    10   ar
     4    10    11   ar
     5    11    14    1
     6    14    15   ar
     7    15    16   ar
     8    16    17   ar
     9    17    18   ar
    10    18    19   ar
    11    11    12   ar
    12    12    13   ar
    13     2     3   am
    14     3     4    1
    15     4     5    1
    16     5     6    1
    17     6    20    1
    18    20    21    1
    19    21    22   ar
    20    22    23   ar
    21    23    24   ar
    22    24    27    1
    23    27    28    1
    24    28    29    1
    25    29    30    1
    26    30    31    1
    27    31    32    1
    28    24    25   ar
    29    25    26   ar
    30     6     7    1
    31     7     8    1
    32    13     9   ar
    33     8     3    1
    34    19    14   ar
    35    26    21   ar
    36    32    28    1
@<TRIPOS>MOLECULE
*****
 32 36 0 0 0
SMALL
GASTEIGER

@<TRIPOS>ATOM
      1 O         143.9915  139.5513  158.9645 O.2     1  UNL1       -0.2681
      2 C         142.6326  138.9187  158.9077 C.2     1  UNL1        0.2701
      3 N         141.5984  139.2695  159.9360 N.am    1  UNL1       -0.2745
      4 C         140.2396  138.6369  159.8792 C.3     1  UNL1        0.0975
      5 C         139.2054  138.9877  160.9075 C.3     1  UNL1        0.0651
      6 C         139.5301  139.9712  161.9926 C.3     1  UNL1        0.1693
      7 C         140.8890  140.6038  162.0493 C.3     1  UNL1        0.0651
      8 C         141.9231  140.2530  161.0210 C.3     1  UNL1        0.0975
      9 C         142.3079  137.9352  157.8226 C.ar    1  UNL1        0.1763
     10 C         142.8180  136.5279  157.7267 C.ar    1  UNL1        0.0672
     11 C         142.2415  135.9093  156.4878 C.ar    1  UNL1        0.1770
     12 O         141.3750  136.9343  155.8180 O.2     1  UNL1       -0.3533
     13 N         141.4161  138.1864  156.6429 N.ar    1  UNL1       -0.0723
     14 C         142.4881  134.5111  156.0036 C.ar    1  UNL1        0.0372
     15 C         141.3987  133.7583  155.2991 C.ar    1  UNL1        0.0031
     16 C         141.6453  132.3602  154.8150 C.ar    1  UNL1        0.0001
     17 C         142.9813  131.7149  155.0354 C.ar    1  UNL1        0.0000
     18 C         144.0707  132.4677  155.7399 C.ar    1  UNL1        0.0001
     19 C         143.8241  133.8658  156.2240 C.ar    1  UNL1        0.0031
     20 O         138.4959  140.3220  163.0209 O.3     1  UNL1       -0.4791
     21 C         138.8682  140.3695  164.4732 C.ar    1  UNL1        0.1384
     22 C         139.5706  141.5730  165.0284 C.ar    1  UNL1        0.0366
     23 C         139.9429  141.6204  166.4806 C.ar    1  UNL1        0.0002
     24 C         139.6127  140.4644  167.3777 C.ar    1  UNL1       -0.0059
     25 C         138.9103  139.2611  166.8225 C.ar    1  UNL1        0.0002
     26 C         138.5380  139.2136  165.3702 C.ar    1  UNL1        0.0366
     27 C         139.9850  140.5119  168.8301 C.3     1  UNL1        0.0991
     28 N         141.1778  141.3062  169.2730 N.3     1  UNL1       -0.2690
     29 C         141.1432  142.6168  170.0017 C.3     1  UNL1        0.0724
     30 C         142.5587  143.0500  170.2440 C.3     1  UNL1        0.0188
     31 C         143.4682  142.0071  169.6650 C.3     1  UNL1        0.0188
     32 C         142.6148  140.9294  169.0648 C.3     1  UNL1        0.0724
@<TRIPOS>BOND
     1     1     2    2
     2     2     9    1
     3     9    10   ar
     4    10    11   ar
     5    11    14    1
     6    14    15   ar
     7    15    16   ar
     8    16    17   ar
     9    17    18   ar
    10    18    19   ar
    11    11    12   ar
    12    12    13   ar
    13     2     3   am
    14     3     4    1
    15     4     5    1
    16     5     6    1
    17     6    20    1
    18    20    21    1
    19    21    22   ar
    20    22    23   ar
    21    23    24   ar
    22    24    27    1
    23    27    28    1
    24    28    29    1
    25    29    30    1
    26    30    31    1
    27    31    32    1
    28    24    25   ar
    29    25    26   ar
    30     6     7    1
    31     7     8    1
    32    13     9   ar
    33     8     3    1
    34    19    14   ar
    35    26    21   ar
    36    32    28    1
@<TRIPOS>MOLECULE
*****
 32 36 0 0 0
SMALL
GASTEIGER

@<TRIPOS>ATOM
      1 O         139.7322  140.0928  156.2190 O.2     1  UNL1       -0.2681
      2 C         140.1752  139.1933  157.3346 C.2     1  UNL1        0.2701
      3 N         139.5296  139.2987  158.6844 N.am    1  UNL1       -0.2745
      4 C         139.9727  138.3991  159.8000 C.3     1  UNL1        0.0975
      5 C         139.3271  138.5045  161.1498 C.3     1  UNL1        0.0651
      6 C         138.2384  139.5095  161.3841 C.3     1  UNL1        0.1693
      7 C         137.7953  140.4091  160.2685 C.3     1  UNL1        0.0651
      8 C         138.4409  140.3036  158.9187 C.3     1  UNL1        0.0975
      9 C         141.2639  138.1883  157.1003 C.ar    1  UNL1        0.1763
     10 C         141.0985  136.8430  156.4579 C.ar    1  UNL1        0.0672
     11 C         142.4415  136.1754  156.4279 C.ar    1  UNL1        0.1770
     12 O         143.4368  137.1082  157.0518 O.2     1  UNL1       -0.3533
     13 N         142.7090  138.3522  157.4674 N.ar    1  UNL1       -0.0723
     14 C         142.7372  134.8141  155.8716 C.ar    1  UNL1        0.0372
     15 C         143.8191  133.9733  156.4820 C.ar    1  UNL1        0.0031
     16 C         144.1148  132.6120  155.9257 C.ar    1  UNL1        0.0001
     17 C         143.3286  132.0916  154.7591 C.ar    1  UNL1        0.0000
     18 C         142.2467  132.9323  154.1487 C.ar    1  UNL1        0.0001
     19 C         141.9510  134.2936  154.7050 C.ar    1  UNL1        0.0031
     20 O         137.5928  139.6149  162.7340 O.3     1  UNL1       -0.4791
     21 C         138.4387  139.8151  163.9564 C.ar    1  UNL1        0.1384
     22 C         139.1839  141.1024  164.1502 C.ar    1  UNL1        0.0366
     23 C         140.0298  141.3026  165.3726 C.ar    1  UNL1        0.0002
     24 C         140.1306  140.2154  166.4011 C.ar    1  UNL1       -0.0059
     25 C         139.3855  138.9282  166.2073 C.ar    1  UNL1        0.0002
     26 C         138.5396  138.7280  164.9849 C.ar    1  UNL1        0.0366
     27 C         140.9766  140.4156  167.6236 C.3     1  UNL1        0.0991
     28 N         140.6270  141.4903  168.6099 N.3     1  UNL1       -0.2690
     29 C         141.0563  142.9258  168.5388 C.3     1  UNL1        0.0724
     30 C         140.4813  143.6409  169.7254 C.3     1  UNL1        0.0188
     31 C         139.6965  142.6474  170.5298 C.3     1  UNL1        0.0188
     32 C         139.7865  141.3182  169.8404 C.3     1  UNL1        0.0724
@<TRIPOS>BOND
     1     1     2    2
     2     2     9    1
     3     9    10   ar
     4    10    11   ar
     5    11    14    1
     6    14    15   ar
     7    15    16   ar
     8    16    17   ar
     9    17    18   ar
    10    18    19   ar
    11    11    12   ar
    12    12    13   ar
    13     2     3   am
    14     3     4    1
    15     4     5    1
    16     5     6    1
    17     6    20    1
    18    20    21    1
    19    21    22   ar
    20    22    23   ar
    21    23    24   ar
    22    24    27    1
    23    27    28    1
    24    28    29    1
    25    29    30    1
    26    30    31    1
    27    31    32    1
    28    24    25   ar
    29    25    26   ar
    30     6     7    1
    31     7     8    1
    32    13     9   ar
    33     8     3    1
    34    19    14   ar
    35    26    21   ar
    36    32    28    1
@<TRIPOS>MOLECULE
*****
 32 36 0 0 0
SMALL
GASTEIGER

@<TRIPOS>ATOM
      1 O         140.9474  145.1619  161.8481 O.2     1  UNL1       -0.2681
      2 C         140.0987  144.2389  161.0249 C.2     1  UNL1        0.2701
      3 N         140.1051  144.3484  159.5290 N.am    1  UNL1       -0.2745
      4 C         139.2564  143.4254  158.7057 C.3     1  UNL1        0.0975
      5 C         139.2628  143.5350  157.2098 C.3     1  UNL1        0.0651
      6 C         140.1180  144.5675  156.5370 C.3     1  UNL1        0.1693
      7 C         140.9667  145.4905  157.3603 C.3     1  UNL1        0.0651
      8 C         140.9603  145.3810  158.8562 C.3     1  UNL1        0.0975
      9 C         139.2435  143.2063  161.6977 C.ar    1  UNL1        0.1763
     10 C         139.7377  142.0315  162.4885 C.ar    1  UNL1        0.0672
     11 C         138.5436  141.2664  162.9773 C.ar    1  UNL1        0.1770
     12 O         137.3115  141.9685  162.4885 O.2     1  UNL1       -0.3533
     13 N         137.7440  143.1674  161.6976 N.ar    1  UNL1       -0.0723
     14 C         138.5760  140.0184  163.8088 C.ar    1  UNL1        0.0372
     15 C         138.2113  140.0762  165.2626 C.ar    1  UNL1        0.0031
     16 C         138.2437  138.8282  166.0941 C.ar    1  UNL1        0.0001
     17 C         138.6408  137.5224  165.4718 C.ar    1  UNL1        0.0000
     18 C         139.0055  137.4646  164.0180 C.ar    1  UNL1        0.0001
     19 C         138.9731  138.7126  163.1865 C.ar    1  UNL1        0.0031
     20 O         140.1244  144.6771  155.0410 O.3     1  UNL1       -0.4791
     21 C         140.2995  146.0159  154.3877 C.ar    1  UNL1        0.1384
     22 C         141.2399  146.1679  153.2290 C.ar    1  UNL1        0.0366
     23 C         141.4149  147.5068  152.5758 C.ar    1  UNL1        0.0002
     24 C         140.6496  148.6937  153.0813 C.ar    1  UNL1       -0.0059
     25 C         139.7093  148.5417  154.2400 C.ar    1  UNL1        0.0002
     26 C         139.5342  147.2029  154.8932 C.ar    1  UNL1        0.0366
     27 C         140.8246  150.0326  152.4281 C.3     1  UNL1        0.0991
     28 N         141.9758  150.9121  152.8170 N.3     1  UNL1       -0.2690
     29 C         141.9265  152.0475  153.7960 C.3     1  UNL1        0.0724
     30 C         143.2986  152.6477  153.8793 C.3     1  UNL1        0.0188
     31 C         144.1960  151.8833  152.9519 C.3     1  UNL1        0.0188
     32 C         143.3786  150.8106  152.2953 C.3     1  UNL1        0.0724
@<TRIPOS>BOND
     1     1     2    2
     2     2     9    1
     3     9    10   ar
     4    10    11   ar
     5    11    14    1
     6    14    15   ar
     7    15    16   ar
     8    16    17   ar
     9    17    18   ar
    10    18    19   ar
    11    11    12   ar
    12    12    13   ar
    13     2     3   am
    14     3     4    1
    15     4     5    1
    16     5     6    1
    17     6    20    1
    18    20    21    1
    19    21    22   ar
    20    22    23   ar
    21    23    24   ar
    22    24    27    1
    23    27    28    1
    24    28    29    1
    25    29    30    1
    26    30    31    1
    27    31    32    1
    28    24    25   ar
    29    25    26   ar
    30     6     7    1
    31     7     8    1
    32    13     9   ar
    33     8     3    1
    34    19    14   ar
    35    26    21   ar
    36    32    28    1
@<TRIPOS>MOLECULE
*****
 32 36 0 0 0
SMALL
GASTEIGER

@<TRIPOS>ATOM
      1 O         140.2413  138.6792  157.8826 O.2     1  UNL1       -0.2681
      2 C         141.6772  138.4316  158.2390 C.2     1  UNL1        0.2701
      3 N         142.2734  139.0876  159.4490 N.am    1  UNL1       -0.2745
      4 C         143.7093  138.8400  159.8053 C.3     1  UNL1        0.0975
      5 C         144.3056  139.4960  161.0153 C.3     1  UNL1        0.0651
      6 C         143.4660  140.3996  161.8690 C.3     1  UNL1        0.1693
      7 C         142.0301  140.6471  161.5126 C.3     1  UNL1        0.0651
      8 C         141.4338  139.9912  160.3026 C.3     1  UNL1        0.0975
      9 C         142.5168  137.5281  157.3853 C.ar    1  UNL1        0.1763
     10 C         142.3298  136.0493  157.2174 C.ar    1  UNL1        0.0672
     11 C         143.3882  135.5520  156.2780 C.ar    1  UNL1        0.1770
     12 O         144.2294  136.7234  155.8654 O.2     1  UNL1       -0.3533
     13 N         143.6908  137.9447  156.5498 N.ar    1  UNL1       -0.0723
     14 C         143.5731  134.1324  155.8299 C.ar    1  UNL1        0.0372
     15 C         144.4824  133.2169  156.5946 C.ar    1  UNL1        0.0031
     16 C         144.6673  131.7974  156.1465 C.ar    1  UNL1        0.0001
     17 C         143.9427  131.2934  154.9337 C.ar    1  UNL1        0.0000
     18 C         143.0333  132.2089  154.1689 C.ar    1  UNL1        0.0001
     19 C         142.8485  133.6284  154.6171 C.ar    1  UNL1        0.0031
     20 O         144.0623  141.0556  163.0791 O.3     1  UNL1       -0.4791
     21 C         143.6198  140.6417  164.4512 C.ar    1  UNL1        0.1384
     22 C         143.0051  141.6494  165.3768 C.ar    1  UNL1        0.0366
     23 C         142.5626  141.2355  166.7489 C.ar    1  UNL1        0.0002
     24 C         142.7349  139.8139  167.1955 C.ar    1  UNL1       -0.0059
     25 C         143.3496  138.8063  166.2700 C.ar    1  UNL1        0.0002
     26 C         143.7920  139.2202  164.8978 C.ar    1  UNL1        0.0366
     27 C         142.2924  139.4000  168.5678 C.3     1  UNL1        0.0991
     28 N         141.4151  140.3073  169.3785 N.3     1  UNL1       -0.2690
     29 C         139.9328  140.4736  169.2198 C.3     1  UNL1        0.0724
     30 C         139.4678  141.4767  170.2334 C.3     1  UNL1        0.0188
     31 C         140.6627  141.9305  171.0185 C.3     1  UNL1        0.0188
     32 C         141.8662  141.2078  170.4902 C.3     1  UNL1        0.0724
@<TRIPOS>BOND
     1     1     2    2
     2     2     9    1
     3     9    10   ar
     4    10    11   ar
     5    11    14    1
     6    14    15   ar
     7    15    16   ar
     8    16    17   ar
     9    17    18   ar
    10    18    19   ar
    11    11    12   ar
    12    12    13   ar
    13     2     3   am
    14     3     4    1
    15     4     5    1
    16     5     6    1
    17     6    20    1
    18    20    21    1
    19    21    22   ar
    20    22    23   ar
    21    23    24   ar
    22    24    27    1
    23    27    28    1
    24    28    29    1
    25    29    30    1
    26    30    31    1
    27    31    32    1
    28    24    25   ar
    29    25    26   ar
    30     6     7    1
    31     7     8    1
    32    13     9   ar
    33     8     3    1
    34    19    14   ar
    35    26    21   ar
    36    32    28    1
@<TRIPOS>MOLECULE
*****
 32 36 0 0 0
SMALL
GASTEIGER

@<TRIPOS>ATOM
      1 O         137.3146  140.2641  158.0411 O.2     1  UNL1       -0.2681
      2 C         138.4155  139.8927  158.9897 C.2     1  UNL1        0.2701
      3 N         139.6547  139.2222  158.4749 N.am    1  UNL1       -0.2745
      4 C         140.7557  138.8508  159.4235 C.3     1  UNL1        0.0975
      5 C         141.9948  138.1804  158.9087 C.3     1  UNL1        0.0651
      6 C         142.1329  137.8813  157.4453 C.3     1  UNL1        0.1693
      7 C         141.0319  138.2527  156.4967 C.3     1  UNL1        0.0651
      8 C         139.7928  138.9232  157.0115 C.3     1  UNL1        0.0975
      9 C         138.2774  140.1918  160.4531 C.ar    1  UNL1        0.1763
     10 C         138.7059  141.4550  161.1391 C.ar    1  UNL1        0.0672
     11 C         138.3799  141.3240  162.5974 C.ar    1  UNL1        0.1770
     12 O         137.7499  139.9799  162.8126 O.2     1  UNL1       -0.3533
     13 N         137.6865  139.2800  161.4874 N.ar    1  UNL1       -0.0723
     14 C         138.6384  142.3561  163.6548 C.ar    1  UNL1        0.0372
     15 C         139.8461  142.2399  164.5368 C.ar    1  UNL1        0.0031
     16 C         140.1046  143.2719  165.5942 C.ar    1  UNL1        0.0001
     17 C         139.1555  144.4201  165.7696 C.ar    1  UNL1        0.0000
     18 C         137.9478  144.5363  164.8875 C.ar    1  UNL1        0.0001
     19 C         137.6893  143.5043  163.8302 C.ar    1  UNL1        0.0031
     20 O         143.3721  137.2108  156.9305 O.3     1  UNL1       -0.4791
     21 C         143.3255  135.7730  156.5057 C.ar    1  UNL1        0.1384
     22 C         143.1197  135.4239  155.0615 C.ar    1  UNL1        0.0366
     23 C         143.0731  133.9861  154.6367 C.ar    1  UNL1        0.0002
     24 C         143.2324  132.8973  155.6562 C.ar    1  UNL1       -0.0059
     25 C         143.4382  133.2464  157.1003 C.ar    1  UNL1        0.0002
     26 C         143.4848  134.6842  157.5251 C.ar    1  UNL1        0.0366
     27 C         143.1858  131.4594  155.2314 C.3     1  UNL1        0.0991
     28 N         141.8651  130.7646  155.0798 N.3     1  UNL1       -0.2690
     29 C         141.6044  129.3060  155.3134 C.3     1  UNL1        0.0724
     30 C         140.1514  129.0463  155.0461 C.3     1  UNL1        0.0188
     31 C         139.5142  130.3443  154.6473 C.3     1  UNL1        0.0188
     32 C         140.5733  131.4063  154.6682 C.3     1  UNL1        0.0724
@<TRIPOS>BOND
     1     1     2    2
     2     2     9    1
     3     9    10   ar
     4    10    11   ar
     5    11    14    1
     6    14    15   ar
     7    15    16   ar
     8    16    17   ar
     9    17    18   ar
    10    18    19   ar
    11    11    12   ar
    12    12    13   ar
    13     2     3   am
    14     3     4    1
    15     4     5    1
    16     5     6    1
    17     6    20    1
    18    20    21    1
    19    21    22   ar
    20    22    23   ar
    21    23    24   ar
    22    24    27    1
    23    27    28    1
    24    28    29    1
    25    29    30    1
    26    30    31    1
    27    31    32    1
    28    24    25   ar
    29    25    26   ar
    30     6     7    1
    31     7     8    1
    32    13     9   ar
    33     8     3    1
    34    19    14   ar
    35    26    21   ar
    36    32    28    1
@<TRIPOS>MOLECULE
*****
 32 36 0 0 0
SMALL
GASTEIGER

@<TRIPOS>ATOM
      1 O         140.9687  136.8291  163.3060 O.2     1  UNL1       -0.2681
      2 C         139.9793  137.9528  163.3970 C.2     1  UNL1        0.2701
      3 N         139.4302  138.5718  162.1459 N.am    1  UNL1       -0.2745
      4 C         138.4407  139.6955  162.2369 C.3     1  UNL1        0.0975
      5 C         137.8917  140.3144  160.9857 C.3     1  UNL1        0.0651
      6 C         138.3321  139.8097  159.6436 C.3     1  UNL1        0.1693
      7 C         139.3215  138.6860  159.5526 C.3     1  UNL1        0.0651
      8 C         139.8706  138.0671  160.8037 C.3     1  UNL1        0.0975
      9 C         139.5388  138.4575  164.7391 C.ar    1  UNL1        0.1763
     10 C         140.1920  139.5547  165.5263 C.ar    1  UNL1        0.0672
     11 C         139.4248  139.7289  166.8034 C.ar    1  UNL1        0.1770
     12 O         138.2974  138.7395  166.8055 O.2     1  UNL1       -0.3533
     13 N         138.3679  137.9537  165.5298 N.ar    1  UNL1       -0.0723
     14 C         139.7312  140.7188  167.8880 C.ar    1  UNL1        0.0372
     15 C         140.3624  142.0356  167.5451 C.ar    1  UNL1        0.0031
     16 C         140.6687  143.0255  168.6297 C.ar    1  UNL1        0.0001
     17 C         140.3438  142.6985  170.0571 C.ar    1  UNL1        0.0000
     18 C         139.7126  141.3817  170.4000 C.ar    1  UNL1        0.0001
     19 C         139.4063  140.3919  169.3154 C.ar    1  UNL1        0.0031
     20 O         137.7830  140.4287  158.3924 O.3     1  UNL1       -0.4791
     21 C         138.5569  141.5007  157.6839 C.ar    1  UNL1        0.1384
     22 C         139.7197  142.1603  158.3642 C.ar    1  UNL1        0.0366
     23 C         140.4935  143.2322  157.6557 C.ar    1  UNL1        0.0002
     24 C         140.1046  143.6446  156.2669 C.ar    1  UNL1       -0.0059
     25 C         138.9418  142.9850  155.5867 C.ar    1  UNL1        0.0002
     26 C         138.1679  141.9131  156.2951 C.ar    1  UNL1        0.0366
     27 C         140.8785  144.7166  155.5584 C.3     1  UNL1        0.0991
     28 N         140.2614  146.0660  155.3381 N.3     1  UNL1       -0.2690
     29 C         140.4535  146.9371  154.1322 C.3     1  UNL1        0.0724
     30 C         139.6547  148.1906  154.3339 C.3     1  UNL1        0.0188
     31 C         138.9689  148.0942  155.6645 C.3     1  UNL1        0.0188
     32 C         139.3439  146.7811  156.2852 C.3     1  UNL1        0.0724
@<TRIPOS>BOND
     1     1     2    2
     2     2     9    1
     3     9    10   ar
     4    10    11   ar
     5    11    14    1
     6    14    15   ar
     7    15    16   ar
     8    16    17   ar
     9    17    18   ar
    10    18    19   ar
    11    11    12   ar
    12    12    13   ar
    13     2     3   am
    14     3     4    1
    15     4     5    1
    16     5     6    1
    17     6    20    1
    18    20    21    1
    19    21    22   ar
    20    22    23   ar
    21    23    24   ar
    22    24    27    1
    23    27    28    1
    24    28    29    1
    25    29    30    1
    26    30    31    1
    27    31    32    1
    28    24    25   ar
    29    25    26   ar
    30     6     7    1
    31     7     8    1
    32    13     9   ar
    33     8     3    1
    34    19    14   ar
    35    26    21   ar
    36    32    28    1
@<TRIPOS>MOLECULE
*****
 32 36 0 0 0
SMALL
GASTEIGER

@<TRIPOS>ATOM
      1 O         137.7096  139.8899  159.1054 O.2     1  UNL1       -0.2681
      2 C         139.0364  139.7086  159.7812 C.2     1  UNL1        0.2701
      3 N         140.1382  138.9672  159.0838 N.am    1  UNL1       -0.2745
      4 C         141.4650  138.7859  159.7597 C.3     1  UNL1        0.0975
      5 C         142.5668  138.0445  159.0623 C.3     1  UNL1        0.0651
      6 C         142.3418  137.4845  157.6891 C.3     1  UNL1        0.1693
      7 C         141.0151  137.6658  157.0132 C.3     1  UNL1        0.0651
      8 C         139.9133  138.4072  157.7106 C.3     1  UNL1        0.0975
      9 C         139.2614  140.2686  161.1545 C.ar    1  UNL1        0.1763
     10 C         138.9428  139.5823  162.4496 C.ar    1  UNL1        0.0672
     11 C         139.3289  140.5027  163.5693 C.ar    1  UNL1        0.1770
     12 O         139.8862  141.7580  162.9661 O.2     1  UNL1       -0.3533
     13 N         139.8444  141.6133  161.4737 N.ar    1  UNL1       -0.0723
     14 C         139.1834  140.2180  165.0348 C.ar    1  UNL1        0.0372
     15 C         138.1962  139.1911  165.5049 C.ar    1  UNL1        0.0031
     16 C         138.0507  138.9064  166.9704 C.ar    1  UNL1        0.0001
     17 C         138.8924  139.6486  167.9658 C.ar    1  UNL1        0.0000
     18 C         139.8795  140.6755  167.4957 C.ar    1  UNL1        0.0001
     19 C         140.0250  140.9602  166.0302 C.ar    1  UNL1        0.0031
     20 O         143.4437  136.7431  156.9917 O.3     1  UNL1       -0.4791
     21 C         143.2059  135.3531  156.4804 C.ar    1  UNL1        0.1384
     22 C         142.8290  135.1362  155.0448 C.ar    1  UNL1        0.0366
     23 C         142.5913  133.7463  154.5336 C.ar    1  UNL1        0.0002
     24 C         142.7303  132.5732  155.4580 C.ar    1  UNL1       -0.0059
     25 C         143.1072  132.7900  156.8935 C.ar    1  UNL1        0.0002
     26 C         143.3450  134.1800  157.4048 C.ar    1  UNL1        0.0366
     27 C         142.4925  131.1831  154.9467 C.3     1  UNL1        0.0991
     28 N         143.3835  130.0595  155.3870 N.3     1  UNL1       -0.2690
     29 C         144.6583  129.6326  154.7217 C.3     1  UNL1        0.0724
     30 C         145.2187  128.4748  155.4933 C.3     1  UNL1        0.0188
     31 C         144.2901  128.1860  156.6354 C.3     1  UNL1        0.0188
     32 C         143.1559  129.1654  156.5697 C.3     1  UNL1        0.0724
@<TRIPOS>BOND
     1     1     2    2
     2     2     9    1
     3     9    10   ar
     4    10    11   ar
     5    11    14    1
     6    14    15   ar
     7    15    16   ar
     8    16    17   ar
     9    17    18   ar
    10    18    19   ar
    11    11    12   ar
    12    12    13   ar
    13     2     3   am
    14     3     4    1
    15     4     5    1
    16     5     6    1
    17     6    20    1
    18    20    21    1
    19    21    22   ar
    20    22    23   ar
    21    23    24   ar
    22    24    27    1
    23    27    28    1
    24    28    29    1
    25    29    30    1
    26    30    31    1
    27    31    32    1
    28    24    25   ar
    29    25    26   ar
    30     6     7    1
    31     7     8    1
    32    13     9   ar
    33     8     3    1
    34    19    14   ar
    35    26    21   ar
    36    32    28    1
