@<TRIPOS>MOLECULE
*****
 33 35 0 0 0
SMALL
GASTEIGER

@<TRIPOS>ATOM
      1 N         139.3851  138.9098  163.9517 N.3     1  UNL1       -0.2685
      2 C         138.5658  139.4610  165.0808 C.3     1  UNL1        0.1035
      3 C         139.2077  139.7375  166.4080 C.3     1  UNL1        0.1470
      4 C         139.8496  140.0141  167.7352 C.3     1  UNL1        0.1035
      5 N         141.3109  139.7395  167.9333 N.3     1  UNL1       -0.2684
      6 C         142.1302  139.1884  166.8042 C.3     1  UNL1        0.1035
      7 C         141.4883  138.9118  165.4770 C.3     1  UNL1        0.1470
      8 C         140.8464  138.6353  164.1498 C.3     1  UNL1        0.1035
      9 O         140.6690  139.4629  166.6061 O.3     1  UNL1       -0.3530
     10 C         138.7432  138.6333  162.6245 C.3     1  UNL1        0.0741
     11 C         137.9191  139.6926  161.9547 C.3     1  UNL1        0.0443
     12 C         138.5751  140.9396  161.4402 C.3     1  UNL1        0.1703
     13 S         138.1370  142.2815  161.9475 S.O2    1  UNL1        0.0407
     14 O         136.9014  141.6591  162.5268 O.2     1  UNL1       -0.1575
     15 O         139.3727  142.9040  161.3682 O.2     1  UNL1       -0.1575
     16 N         137.6990  143.6234  162.4548 N.3     1  UNL1       -0.1860
     17 H         137.7898  144.2764  161.6765 H       1  UNL1        0.1483
     18 C         138.9140  145.3392  162.7380 C.3     1  UNL1        0.0175
     19 C         138.3976  144.2468  163.6268 C.3     1  UNL1        0.0619
     20 C         137.8812  143.1544  164.5156 C.3     1  UNL1        0.0175
     21 C         139.0961  144.8701  164.7988 C.3     1  UNL1        0.0175
     22 C         141.9528  140.0161  169.2605 C.3     1  UNL1        0.0761
     23 C         142.7543  141.2682  169.4596 C.3     1  UNL1        0.0646
     24 C         142.6324  142.4000  168.4827 C.3     1  UNL1        0.2068
     25 O         143.7653  142.7109  167.5500 O.3     1  UNL1       -0.4754
     26 C         143.4868  143.0218  166.1092 C.ar    1  UNL1        0.1386
     27 C         142.1920  142.5919  165.4859 C.ar    1  UNL1        0.0376
     28 C         141.9134  142.9027  164.0452 C.ar    1  UNL1        0.0134
     29 C         142.9297  143.6436  163.2277 C.ar    1  UNL1        0.0686
     30 C         144.2246  144.0736  163.8510 C.ar    1  UNL1        0.0134
     31 C         144.5031  143.7627  165.2917 C.ar    1  UNL1        0.0376
     32 C         142.6511  143.9545  161.7869 C.1     1  UNL1        0.1004
     33 N         142.3726  144.2654  160.3462 N.1     1  UNL1       -0.1908
@<TRIPOS>BOND
     1    18    19    1
     2    19    20    1
     3    19    21    1
     4    19    16    1
     5    16    13    1
     6    13    14    2
     7    13    15    2
     8    13    12    1
     9    12    11    1
    10    11    10    1
    11    10     1    1
    12     1     2    1
    13     2     3    1
    14     3     4    1
    15     4     5    1
    16     5    22    1
    17    22    23    1
    18    23    24    1
    19    24    25    1
    20    25    26    1
    21    26    27   ar
    22    27    28   ar
    23    28    29   ar
    24    29    32    1
    25    32    33    3
    26    29    30   ar
    27    30    31   ar
    28     5     6    1
    29     6     7    1
    30     7     8    1
    31     7     9    1
    32     8     1    1
    33     9     3    1
    34    31    26   ar
    35    16    17    1
@<TRIPOS>MOLECULE
*****
 33 35 0 0 0
SMALL
GASTEIGER

@<TRIPOS>ATOM
      1 N         143.8183  141.7075  164.7239 N.3     1  UNL1       -0.2685
      2 C         143.6259  142.6873  165.8433 C.3     1  UNL1        0.1035
      3 C         143.1312  142.2138  167.1778 C.3     1  UNL1        0.1470
      4 C         142.6366  141.7402  168.5124 C.3     1  UNL1        0.1035
      5 N         142.3343  140.2869  168.7276 N.3     1  UNL1       -0.2684
      6 C         142.5266  139.3071  167.6083 C.3     1  UNL1        0.1035
      7 C         143.0213  139.7806  166.2737 C.3     1  UNL1        0.1470
      8 C         143.5160  140.2542  164.9392 C.3     1  UNL1        0.1035
      9 O         142.8289  140.7604  167.3931 O.3     1  UNL1       -0.3530
     10 C         144.3130  142.1810  163.3894 C.3     1  UNL1        0.0741
     11 C         143.3626  142.8206  162.4210 C.3     1  UNL1        0.0443
     12 C         143.1016  144.2961  162.4899 C.3     1  UNL1        0.1703
     13 S         141.7826  144.8017  162.9948 S.O2    1  UNL1        0.0407
     14 O         142.4931  145.6166  164.0346 O.2     1  UNL1       -0.1575
     15 O         141.0722  143.9867  161.9551 O.2     1  UNL1       -0.1575
     16 N         140.4638  145.3072  163.4998 N.3     1  UNL1       -0.1860
     17 H         140.6607  145.8633  164.3319 H       1  UNL1        0.1483
     18 C         140.2513  143.7878  164.9648 C.3     1  UNL1        0.0175
     19 C         139.3819  144.3375  163.8731 C.3     1  UNL1        0.0619
     20 C         138.5126  144.8872  162.7813 C.3     1  UNL1        0.0175
     21 C         138.3001  143.3679  164.2463 C.3     1  UNL1        0.0175
     22 C         141.8396  139.8134  170.0622 C.3     1  UNL1        0.0761
     23 C         140.3768  139.8816  170.3872 C.3     1  UNL1        0.0646
     24 C         139.4130  140.4538  169.3904 C.3     1  UNL1        0.2068
     25 O         138.4697  139.5490  168.6545 O.3     1  UNL1       -0.4754
     26 C         138.6970  139.2497  167.2024 C.ar    1  UNL1        0.1386
     27 C         138.2724  137.9283  166.6335 C.ar    1  UNL1        0.0376
     28 C         138.4997  137.6290  165.1814 C.ar    1  UNL1        0.0134
     29 C         139.1517  138.6511  164.2981 C.ar    1  UNL1        0.0686
     30 C         139.5764  139.9725  164.8669 C.ar    1  UNL1        0.0134
     31 C         139.3490  140.2718  166.3191 C.ar    1  UNL1        0.0376
     32 C         139.3791  138.3518  162.8459 C.1     1  UNL1        0.1004
     33 N         139.6064  138.0525  161.3938 N.1     1  UNL1       -0.1908
@<TRIPOS>BOND
     1    18    19    1
     2    19    20    1
     3    19    21    1
     4    19    16    1
     5    16    13    1
     6    13    14    2
     7    13    15    2
     8    13    12    1
     9    12    11    1
    10    11    10    1
    11    10     1    1
    12     1     2    1
    13     2     3    1
    14     3     4    1
    15     4     5    1
    16     5    22    1
    17    22    23    1
    18    23    24    1
    19    24    25    1
    20    25    26    1
    21    26    27   ar
    22    27    28   ar
    23    28    29   ar
    24    29    32    1
    25    32    33    3
    26    29    30   ar
    27    30    31   ar
    28     5     6    1
    29     6     7    1
    30     7     8    1
    31     7     9    1
    32     8     1    1
    33     9     3    1
    34    31    26   ar
    35    16    17    1
@<TRIPOS>MOLECULE
*****
 33 35 0 0 0
SMALL
GASTEIGER

@<TRIPOS>ATOM
      1 N         142.4861  140.4080  164.2988 N.3     1  UNL1       -0.2685
      2 C         141.4805  140.2108  163.2035 C.3     1  UNL1        0.1035
      3 C         141.2272  141.3073  162.2116 C.3     1  UNL1        0.1470
      4 C         140.9740  142.4037  161.2198 C.3     1  UNL1        0.1035
      5 N         141.7263  143.6972  161.3233 N.3     1  UNL1       -0.2684
      6 C         142.7319  143.8943  162.4187 C.3     1  UNL1        0.1035
      7 C         142.9852  142.7979  163.4105 C.3     1  UNL1        0.1470
      8 C         143.2384  141.7015  164.4023 C.3     1  UNL1        0.1035
      9 O         141.9796  142.6008  162.3151 O.3     1  UNL1       -0.3530
     10 C         142.7394  139.3115  165.2907 C.3     1  UNL1        0.0741
     11 C         143.2817  139.6404  166.6500 C.3     1  UNL1        0.0443
     12 C         142.5357  139.2122  167.8788 C.3     1  UNL1        0.1703
     13 S         142.3137  140.1852  168.9987 S.O2    1  UNL1        0.0407
     14 O         142.4827  141.3267  168.0403 O.2     1  UNL1       -0.1575
     15 O         142.1448  139.0438  169.9571 O.2     1  UNL1       -0.1575
     16 N         142.0918  141.1583  170.1184 N.3     1  UNL1       -0.1860
     17 H         141.6818  140.6313  170.8895 H       1  UNL1        0.1483
     18 C         140.0523  141.4655  169.6222 C.3     1  UNL1        0.0175
     19 C         141.2216  142.3614  169.9052 C.3     1  UNL1        0.0619
     20 C         142.3909  143.2572  170.1881 C.3     1  UNL1        0.0175
     21 C         140.3515  143.5644  169.6920 C.3     1  UNL1        0.0175
     22 C         141.4731  144.7936  160.3315 C.3     1  UNL1        0.0761
     23 C         140.2008  145.5854  160.3973 C.3     1  UNL1        0.0646
     24 C         139.7051  146.0999  161.7162 C.3     1  UNL1        0.2068
     25 O         138.4807  145.5011  162.3426 O.3     1  UNL1       -0.4754
     26 C         138.6044  144.2990  163.2313 C.ar    1  UNL1        0.1386
     27 C         137.7255  143.1049  163.0044 C.ar    1  UNL1        0.0376
     28 C         137.8492  141.9029  163.8931 C.ar    1  UNL1        0.0134
     29 C         138.8518  141.8949  165.0086 C.ar    1  UNL1        0.0686
     30 C         139.7308  143.0891  165.2356 C.ar    1  UNL1        0.0134
     31 C         139.6071  144.2911  164.3469 C.ar    1  UNL1        0.0376
     32 C         138.9755  140.6928  165.8973 C.1     1  UNL1        0.1004
     33 N         139.0993  139.4908  166.7860 N.1     1  UNL1       -0.1908
@<TRIPOS>BOND
     1    18    19    1
     2    19    20    1
     3    19    21    1
     4    19    16    1
     5    16    13    1
     6    13    14    2
     7    13    15    2
     8    13    12    1
     9    12    11    1
    10    11    10    1
    11    10     1    1
    12     1     2    1
    13     2     3    1
    14     3     4    1
    15     4     5    1
    16     5    22    1
    17    22    23    1
    18    23    24    1
    19    24    25    1
    20    25    26    1
    21    26    27   ar
    22    27    28   ar
    23    28    29   ar
    24    29    32    1
    25    32    33    3
    26    29    30   ar
    27    30    31   ar
    28     5     6    1
    29     6     7    1
    30     7     8    1
    31     7     9    1
    32     8     1    1
    33     9     3    1
    34    31    26   ar
    35    16    17    1
@<TRIPOS>MOLECULE
*****
 33 35 0 0 0
SMALL
GASTEIGER

@<TRIPOS>ATOM
      1 N         140.0883  142.5905  160.1500 N.3     1  UNL1       -0.2685
      2 C         141.1637  141.5905  160.4555 C.3     1  UNL1        0.1035
      3 C         140.8391  140.3582  161.2467 C.3     1  UNL1        0.1470
      4 C         140.5145  139.1259  162.0379 C.3     1  UNL1        0.1035
      5 N         139.1145  138.8935  162.5236 N.3     1  UNL1       -0.2684
      6 C         138.0391  139.8935  162.2181 C.3     1  UNL1        0.1035
      7 C         138.3637  141.1259  161.4269 C.3     1  UNL1        0.1470
      8 C         138.6883  142.3582  160.6357 C.3     1  UNL1        0.1035
      9 O         139.4391  140.1259  161.7324 O.3     1  UNL1       -0.3530
     10 C         140.4128  143.8228  159.3587 C.3     1  UNL1        0.0741
     11 C         140.8816  145.0629  160.0605 C.3     1  UNL1        0.0443
     12 C         139.9447  145.8171  160.9568 C.3     1  UNL1        0.1703
     13 S         139.9189  145.5277  162.4285 S.O2    1  UNL1        0.0407
     14 O         141.4001  145.7533  162.4988 O.2     1  UNL1       -0.1575
     15 O         138.4376  145.3021  162.3582 O.2     1  UNL1       -0.1575
     16 N         139.8931  145.2384  163.9000 N.3     1  UNL1       -0.1860
     17 H         140.8448  145.3700  164.2427 H       1  UNL1        0.1483
     18 C         138.3085  144.5524  165.1324 C.3     1  UNL1        0.0175
     19 C         139.4370  143.8970  164.3928 C.3     1  UNL1        0.0619
     20 C         140.5655  143.2417  163.6533 C.3     1  UNL1        0.0175
     21 C         138.9810  142.5557  164.8856 C.3     1  UNL1        0.0175
     22 C         138.7900  137.6612  163.3148 C.3     1  UNL1        0.0761
     23 C         138.7279  137.7260  164.8121 C.3     1  UNL1        0.0646
     24 C         139.2427  138.9368  165.5324 C.3     1  UNL1        0.2068
     25 O         139.0055  139.0904  167.0056 O.3     1  UNL1       -0.4754
     26 C         139.8432  140.0442  167.8047 C.ar    1  UNL1        0.1386
     27 C         139.3925  140.4771  169.1683 C.ar    1  UNL1        0.0376
     28 C         140.2301  141.4309  169.9674 C.ar    1  UNL1        0.0134
     29 C         141.5185  141.9518  169.4029 C.ar    1  UNL1        0.0686
     30 C         141.9693  141.5189  168.0393 C.ar    1  UNL1        0.0134
     31 C         141.1316  140.5651  167.2402 C.ar    1  UNL1        0.0376
     32 C         142.3562  142.9056  170.2021 C.1     1  UNL1        0.1004
     33 N         143.1938  143.8594  171.0012 N.1     1  UNL1       -0.1908
@<TRIPOS>BOND
     1    18    19    1
     2    19    20    1
     3    19    21    1
     4    19    16    1
     5    16    13    1
     6    13    14    2
     7    13    15    2
     8    13    12    1
     9    12    11    1
    10    11    10    1
    11    10     1    1
    12     1     2    1
    13     2     3    1
    14     3     4    1
    15     4     5    1
    16     5    22    1
    17    22    23    1
    18    23    24    1
    19    24    25    1
    20    25    26    1
    21    26    27   ar
    22    27    28   ar
    23    28    29   ar
    24    29    32    1
    25    32    33    3
    26    29    30   ar
    27    30    31   ar
    28     5     6    1
    29     6     7    1
    30     7     8    1
    31     7     9    1
    32     8     1    1
    33     9     3    1
    34    31    26   ar
    35    16    17    1
@<TRIPOS>MOLECULE
*****
 33 35 0 0 0
SMALL
GASTEIGER

@<TRIPOS>ATOM
      1 N         144.0728  141.5037  163.6210 N.3     1  UNL1       -0.2685
      2 C         143.7319  140.0753  163.9265 C.3     1  UNL1        0.1035
      3 C         143.2331  139.6983  165.2899 C.3     1  UNL1        0.1470
      4 C         142.7343  139.3213  166.6534 C.3     1  UNL1        0.1035
      5 N         142.5763  140.3728  167.7114 N.3     1  UNL1       -0.2684
      6 C         142.9172  141.8012  167.4060 C.3     1  UNL1        0.1035
      7 C         143.4160  142.1782  166.0425 C.3     1  UNL1        0.1470
      8 C         143.9148  142.5552  164.6790 C.3     1  UNL1        0.1035
      9 O         143.0751  140.7497  166.3480 O.3     1  UNL1       -0.3530
     10 C         144.5716  141.8807  162.2575 C.3     1  UNL1        0.0741
     11 C         143.7719  142.8142  161.3980 C.3     1  UNL1        0.0443
     12 C         142.2986  142.5947  161.2215 C.3     1  UNL1        0.1703
     13 S         141.3248  143.6429  161.6722 S.O2    1  UNL1        0.0407
     14 O         140.3449  142.5711  162.0477 O.2     1  UNL1       -0.1575
     15 O         142.3047  144.7147  161.2967 O.2     1  UNL1       -0.1575
     16 N         140.3511  144.6911  162.1229 N.3     1  UNL1       -0.1860
     17 H         140.8243  145.5903  162.0339 H       1  UNL1        0.1483
     18 C         141.1629  144.7245  164.0825 C.3     1  UNL1        0.0175
     19 C         139.7797  144.6377  163.5089 C.3     1  UNL1        0.0619
     20 C         138.3965  144.5508  162.9352 C.3     1  UNL1        0.0175
     21 C         139.2083  144.5842  164.8947 C.3     1  UNL1        0.0175
     22 C         142.0775  139.9958  169.0749 C.3     1  UNL1        0.0761
     23 C         140.6034  139.9529  169.3488 C.3     1  UNL1        0.0646
     24 C         139.6281  140.2915  168.2606 C.3     1  UNL1        0.2068
     25 O         138.9092  139.1961  167.5302 O.3     1  UNL1       -0.4754
     26 C         138.7278  139.2794  166.0435 C.ar    1  UNL1        0.1386
     27 C         138.3158  140.5749  165.4097 C.ar    1  UNL1        0.0376
     28 C         138.1343  140.6583  163.9230 C.ar    1  UNL1        0.0134
     29 C         138.3650  139.4461  163.0702 C.ar    1  UNL1        0.0686
     30 C         138.7771  138.1505  163.7040 C.ar    1  UNL1        0.0134
     31 C         138.9585  138.0672  165.1907 C.ar    1  UNL1        0.0376
     32 C         138.1836  139.5294  161.5836 C.1     1  UNL1        0.1004
     33 N         138.0022  139.6128  160.0969 N.1     1  UNL1       -0.1908
@<TRIPOS>BOND
     1    18    19    1
     2    19    20    1
     3    19    21    1
     4    19    16    1
     5    16    13    1
     6    13    14    2
     7    13    15    2
     8    13    12    1
     9    12    11    1
    10    11    10    1
    11    10     1    1
    12     1     2    1
    13     2     3    1
    14     3     4    1
    15     4     5    1
    16     5    22    1
    17    22    23    1
    18    23    24    1
    19    24    25    1
    20    25    26    1
    21    26    27   ar
    22    27    28   ar
    23    28    29   ar
    24    29    32    1
    25    32    33    3
    26    29    30   ar
    27    30    31   ar
    28     5     6    1
    29     6     7    1
    30     7     8    1
    31     7     9    1
    32     8     1    1
    33     9     3    1
    34    31    26   ar
    35    16    17    1
@<TRIPOS>MOLECULE
*****
 33 35 0 0 0
SMALL
GASTEIGER

@<TRIPOS>ATOM
      1 N         138.5861  142.1607  163.3034 N.3     1  UNL1       -0.2685
      2 C         139.2104  143.1065  164.2860 C.3     1  UNL1        0.1035
      3 C         139.6656  142.6050  165.6244 C.3     1  UNL1        0.1470
      4 C         140.1208  142.1035  166.9628 C.3     1  UNL1        0.1035
      5 N         139.9518  140.6562  167.3185 N.3     1  UNL1       -0.2684
      6 C         139.3275  139.7103  166.3358 C.3     1  UNL1        0.1035
      7 C         138.8723  140.2119  164.9975 C.3     1  UNL1        0.1470
      8 C         138.4170  140.7134  163.6591 C.3     1  UNL1        0.1035
      9 O         139.4966  141.1577  165.9801 O.3     1  UNL1       -0.3530
     10 C         138.1308  142.6622  161.9650 C.3     1  UNL1        0.0741
     11 C         139.0489  143.5013  161.1266 C.3     1  UNL1        0.0443
     12 C         140.4262  143.0065  160.7978 C.3     1  UNL1        0.1703
     13 S         141.6280  143.8034  161.2111 S.O2    1  UNL1        0.0407
     14 O         142.1965  142.5933  161.8910 O.2     1  UNL1       -0.1575
     15 O         141.0595  145.0135  160.5312 O.2     1  UNL1       -0.1575
     16 N         142.8297  144.6002  161.6245 N.3     1  UNL1       -0.1860
     17 H         143.5917  144.3272  161.0039 H       1  UNL1        0.1483
     18 C         142.1629  145.2558  163.5286 C.3     1  UNL1        0.0175
     19 C         143.3537  144.4947  163.0260 C.3     1  UNL1        0.0619
     20 C         144.5446  143.7336  162.5235 C.3     1  UNL1        0.0175
     21 C         143.8778  144.3892  164.4275 C.3     1  UNL1        0.0175
     22 C         140.4070  140.1546  168.6568 C.3     1  UNL1        0.0761
     23 C         141.8249  139.7032  168.8460 C.3     1  UNL1        0.0646
     24 C         142.8009  139.8009  167.7111 C.3     1  UNL1        0.2068
     25 O         143.0892  138.5969  166.8641 O.3     1  UNL1       -0.4754
     26 C         143.2705  138.7480  165.3828 C.ar    1  UNL1        0.1386
     27 C         142.3042  138.0963  164.4386 C.ar    1  UNL1        0.0376
     28 C         142.4854  138.2474  162.9573 C.ar    1  UNL1        0.0134
     29 C         143.6330  139.0502  162.4201 C.ar    1  UNL1        0.0686
     30 C         144.5994  139.7019  163.3643 C.ar    1  UNL1        0.0134
     31 C         144.4181  139.5508  164.8456 C.ar    1  UNL1        0.0376
     32 C         143.8143  139.2013  160.9388 C.1     1  UNL1        0.1004
     33 N         143.9955  139.3524  159.4575 N.1     1  UNL1       -0.1908
@<TRIPOS>BOND
     1    18    19    1
     2    19    20    1
     3    19    21    1
     4    19    16    1
     5    16    13    1
     6    13    14    2
     7    13    15    2
     8    13    12    1
     9    12    11    1
    10    11    10    1
    11    10     1    1
    12     1     2    1
    13     2     3    1
    14     3     4    1
    15     4     5    1
    16     5    22    1
    17    22    23    1
    18    23    24    1
    19    24    25    1
    20    25    26    1
    21    26    27   ar
    22    27    28   ar
    23    28    29   ar
    24    29    32    1
    25    32    33    3
    26    29    30   ar
    27    30    31   ar
    28     5     6    1
    29     6     7    1
    30     7     8    1
    31     7     9    1
    32     8     1    1
    33     9     3    1
    34    31    26   ar
    35    16    17    1
@<TRIPOS>MOLECULE
*****
 33 35 0 0 0
SMALL
GASTEIGER

@<TRIPOS>ATOM
      1 N         139.4570  138.8335  161.3325 N.3     1  UNL1       -0.2685
      2 C         140.0521  137.8349  162.2804 C.3     1  UNL1        0.1035
      3 C         139.8312  137.9785  163.7571 C.3     1  UNL1        0.1470
      4 C         139.6103  138.1221  165.2338 C.3     1  UNL1        0.1035
      5 N         138.7943  139.2643  165.7625 N.3     1  UNL1       -0.2684
      6 C         138.1992  140.2628  164.8145 C.3     1  UNL1        0.1035
      7 C         138.4201  140.1192  163.3379 C.3     1  UNL1        0.1470
      8 C         138.6410  139.9756  161.8612 C.3     1  UNL1        0.1035
      9 O         139.0152  139.1207  164.2858 O.3     1  UNL1       -0.3530
     10 C         139.6779  138.6899  159.8558 C.3     1  UNL1        0.0741
     11 C         141.0717  138.6987  159.3016 C.3     1  UNL1        0.0443
     12 C         141.9431  139.9061  159.4824 C.3     1  UNL1        0.1703
     13 S         143.1474  139.8353  160.3740 S.O2    1  UNL1        0.0407
     14 O         143.7955  138.8741  159.4222 O.2     1  UNL1       -0.1575
     15 O         142.4993  140.7965  161.3258 O.2     1  UNL1       -0.1575
     16 N         144.3516  139.7644  161.2655 N.3     1  UNL1       -0.1860
     17 H         144.9336  139.0039  160.9143 H       1  UNL1        0.1483
     18 C         144.8812  140.8320  163.0204 C.3     1  UNL1        0.0175
     19 C         144.1820  139.5354  162.7382 C.3     1  UNL1        0.0619
     20 C         143.4827  138.2387  162.4560 C.3     1  UNL1        0.0175
     21 C         144.0124  139.3063  164.2109 C.3     1  UNL1        0.0175
     22 C         138.5734  139.4078  167.2392 C.3     1  UNL1        0.0761
     23 C         139.6629  139.9590  168.1104 C.3     1  UNL1        0.0646
     24 C         140.2023  141.3354  167.8564 C.3     1  UNL1        0.2068
     25 O         141.1554  141.5699  166.7220 O.3     1  UNL1       -0.4754
     26 C         140.8217  142.5721  165.6571 C.ar    1  UNL1        0.1386
     27 C         139.6946  143.5398  165.8647 C.ar    1  UNL1        0.0376
     28 C         139.3608  144.5421  164.7997 C.ar    1  UNL1        0.0134
     29 C         140.1542  144.5766  163.5272 C.ar    1  UNL1        0.0686
     30 C         141.2814  143.6089  163.3196 C.ar    1  UNL1        0.0134
     31 C         141.6151  142.6066  164.3845 C.ar    1  UNL1        0.0376
     32 C         139.8204  145.5789  162.4623 C.1     1  UNL1        0.1004
     33 N         139.4867  146.5812  161.3973 N.1     1  UNL1       -0.1908
@<TRIPOS>BOND
     1    18    19    1
     2    19    20    1
     3    19    21    1
     4    19    16    1
     5    16    13    1
     6    13    14    2
     7    13    15    2
     8    13    12    1
     9    12    11    1
    10    11    10    1
    11    10     1    1
    12     1     2    1
    13     2     3    1
    14     3     4    1
    15     4     5    1
    16     5    22    1
    17    22    23    1
    18    23    24    1
    19    24    25    1
    20    25    26    1
    21    26    27   ar
    22    27    28   ar
    23    28    29   ar
    24    29    32    1
    25    32    33    3
    26    29    30   ar
    27    30    31   ar
    28     5     6    1
    29     6     7    1
    30     7     8    1
    31     7     9    1
    32     8     1    1
    33     9     3    1
    34    31    26   ar
    35    16    17    1
@<TRIPOS>MOLECULE
*****
 33 35 0 0 0
SMALL
GASTEIGER

@<TRIPOS>ATOM
      1 N         138.4371  140.4404  164.9709 N.3     1  UNL1       -0.2685
      2 C         137.8203  140.7133  163.6311 C.3     1  UNL1        0.1035
      3 C         138.0644  142.0254  162.9463 C.3     1  UNL1        0.1470
      4 C         138.3085  143.3374  162.2615 C.3     1  UNL1        0.1035
      5 N         139.1694  144.3766  162.9165 N.3     1  UNL1       -0.2684
      6 C         139.7861  144.1037  164.2563 C.3     1  UNL1        0.1035
      7 C         139.5421  142.7916  164.9411 C.3     1  UNL1        0.1470
      8 C         139.2980  141.4796  165.6259 C.3     1  UNL1        0.1035
      9 O         138.9253  143.0645  163.6013 O.3     1  UNL1       -0.3530
     10 C         138.1930  139.1284  165.6557 C.3     1  UNL1        0.0741
     11 C         138.9079  137.8948  165.1898 C.3     1  UNL1        0.0443
     12 C         140.3566  137.9667  164.8074 C.3     1  UNL1        0.1703
     13 S         140.7820  137.6199  163.4114 S.O2    1  UNL1        0.0407
     14 O         139.3569  137.3201  163.0517 O.2     1  UNL1       -0.1575
     15 O         142.2070  137.9196  163.7711 O.2     1  UNL1       -0.1575
     16 N         141.2073  137.2731  162.0154 N.3     1  UNL1       -0.1860
     17 H         141.9801  136.6126  162.0986 H       1  UNL1        0.1483
     18 C         140.3509  139.0623  161.2633 C.3     1  UNL1        0.0175
     19 C         141.6601  138.3539  161.0790 C.3     1  UNL1        0.0619
     20 C         142.9694  137.6455  160.8947 C.3     1  UNL1        0.0175
     21 C         142.1130  139.4346  160.1426 C.3     1  UNL1        0.0175
     22 C         139.4134  145.6886  162.2317 C.3     1  UNL1        0.0761
     23 C         140.1251  145.7248  160.9118 C.3     1  UNL1        0.0646
     24 C         141.1311  144.6650  160.5728 C.3     1  UNL1        0.2068
     25 O         142.5186  144.7400  161.1378 O.3     1  UNL1       -0.4754
     26 C         143.0799  143.5793  161.9045 C.ar    1  UNL1        0.1386
     27 C         144.5437  143.5319  162.2285 C.ar    1  UNL1        0.0376
     28 C         145.1050  142.3713  162.9952 C.ar    1  UNL1        0.0134
     29 C         144.2024  141.2581  163.4380 C.ar    1  UNL1        0.0686
     30 C         142.7385  141.3054  163.1141 C.ar    1  UNL1        0.0134
     31 C         142.1773  142.4661  162.3473 C.ar    1  UNL1        0.0376
     32 C         144.7637  140.0974  164.2048 C.1     1  UNL1        0.1004
     33 N         145.3250  138.9368  164.9715 N.1     1  UNL1       -0.1908
@<TRIPOS>BOND
     1    18    19    1
     2    19    20    1
     3    19    21    1
     4    19    16    1
     5    16    13    1
     6    13    14    2
     7    13    15    2
     8    13    12    1
     9    12    11    1
    10    11    10    1
    11    10     1    1
    12     1     2    1
    13     2     3    1
    14     3     4    1
    15     4     5    1
    16     5    22    1
    17    22    23    1
    18    23    24    1
    19    24    25    1
    20    25    26    1
    21    26    27   ar
    22    27    28   ar
    23    28    29   ar
    24    29    32    1
    25    32    33    3
    26    29    30   ar
    27    30    31   ar
    28     5     6    1
    29     6     7    1
    30     7     8    1
    31     7     9    1
    32     8     1    1
    33     9     3    1
    34    31    26   ar
    35    16    17    1
@<TRIPOS>MOLECULE
*****
 33 35 0 0 0
SMALL
GASTEIGER

@<TRIPOS>ATOM
      1 N         140.8673  141.9771  159.9146 N.3     1  UNL1       -0.2685
      2 C         140.1929  141.6183  161.2054 C.3     1  UNL1        0.1035
      3 C         140.9594  140.9041  162.2789 C.3     1  UNL1        0.1470
      4 C         141.7259  140.1899  163.3524 C.3     1  UNL1        0.1035
      5 N         143.1668  139.8344  163.1350 N.3     1  UNL1       -0.2684
      6 C         143.8413  140.1932  161.8441 C.3     1  UNL1        0.1035
      7 C         143.0747  140.9075  160.7707 C.3     1  UNL1        0.1470
      8 C         142.3082  141.6217  159.6972 C.3     1  UNL1        0.1035
      9 O         142.4003  140.5487  162.0615 O.3     1  UNL1       -0.3530
     10 C         140.1008  142.6914  158.8411 C.3     1  UNL1        0.0741
     11 C         139.7737  144.1471  158.9953 C.3     1  UNL1        0.0443
     12 C         140.8029  145.0937  159.5382 C.3     1  UNL1        0.1703
     13 S         140.7462  145.5195  160.9754 S.O2    1  UNL1        0.0407
     14 O         139.4401  146.2109  160.7191 O.2     1  UNL1       -0.1575
     15 O         142.0524  144.8280  161.2317 O.2     1  UNL1       -0.1575
     16 N         140.6896  145.9452  162.4126 N.3     1  UNL1       -0.1860
     17 H         141.5194  146.5129  162.5844 H       1  UNL1        0.1483
     18 C         142.0379  145.2699  163.9046 C.3     1  UNL1        0.0175
     19 C         140.6387  144.9125  163.4993 C.3     1  UNL1        0.0619
     20 C         139.2394  144.5551  163.0941 C.3     1  UNL1        0.0175
     21 C         140.5877  143.8798  164.5860 C.3     1  UNL1        0.0175
     22 C         143.9333  139.1202  164.2084 C.3     1  UNL1        0.0761
     23 C         143.7700  139.5261  165.6432 C.3     1  UNL1        0.0646
     24 C         143.2064  138.5550  166.6379 C.3     1  UNL1        0.2068
     25 O         143.1848  138.9034  168.0967 O.3     1  UNL1       -0.4754
     26 C         142.5075  140.1599  168.5578 C.ar    1  UNL1        0.1386
     27 C         141.1832  140.5553  167.9749 C.ar    1  UNL1        0.0376
     28 C         140.5060  141.8118  168.4360 C.ar    1  UNL1        0.0134
     29 C         141.1531  142.6728  169.4800 C.ar    1  UNL1        0.0686
     30 C         142.4775  142.2774  170.0629 C.ar    1  UNL1        0.0134
     31 C         143.1547  141.0209  169.6018 C.ar    1  UNL1        0.0376
     32 C         140.4758  143.9293  169.9411 C.1     1  UNL1        0.1004
     33 N         139.7986  145.1858  170.4022 N.1     1  UNL1       -0.1908
@<TRIPOS>BOND
     1    18    19    1
     2    19    20    1
     3    19    21    1
     4    19    16    1
     5    16    13    1
     6    13    14    2
     7    13    15    2
     8    13    12    1
     9    12    11    1
    10    11    10    1
    11    10     1    1
    12     1     2    1
    13     2     3    1
    14     3     4    1
    15     4     5    1
    16     5    22    1
    17    22    23    1
    18    23    24    1
    19    24    25    1
    20    25    26    1
    21    26    27   ar
    22    27    28   ar
    23    28    29   ar
    24    29    32    1
    25    32    33    3
    26    29    30   ar
    27    30    31   ar
    28     5     6    1
    29     6     7    1
    30     7     8    1
    31     7     9    1
    32     8     1    1
    33     9     3    1
    34    31    26   ar
    35    16    17    1
