@<TRIPOS>MOLECULE
*****
 30 34 0 0 0
SMALL
GASTEIGER

@<TRIPOS>ATOM
      1 C         141.4650  143.7583  162.9805 C.ar    1  UNL1        0.0839
      2 C         142.7752  144.0999  163.6259 C.ar    1  UNL1        0.0192
      3 C         143.2639  143.3028  164.7988 C.ar    1  UNL1        0.0030
      4 C         142.4423  142.1641  165.3264 C.ar    1  UNL1        0.0174
      5 C         142.9310  141.3669  166.4994 C.ar    1  UNL1       -0.0027
      6 C         142.1094  140.2282  167.0269 C.ar    1  UNL1       -0.0207
      7 C         140.7991  139.8866  166.3815 C.ar    1  UNL1       -0.0027
      8 C         140.3105  140.6837  165.2085 C.ar    1  UNL1        0.0188
      9 C         141.1321  141.8225  164.6810 C.ar    1  UNL1        0.0812
     10 N         140.6434  142.6196  163.5081 N.ar    1  UNL1       -0.2453
     11 C         142.4433  143.4146  159.8863 C.3     1  UNL1        0.0523
     12 C         141.4260  144.3974  160.3853 C.ar    1  UNL1        0.0655
     13 C         140.9763  144.5555  161.8076 C.ar    1  UNL1        0.0522
     14 C         139.9521  145.6505  161.8509 C.ar    1  UNL1        0.1232
     15 N         139.7688  146.1693  160.4555 N.ar    1  UNL1       -0.1624
     16 N         140.6798  145.3948  159.5496 N.ar    1  UNL1       -0.2161
     17 C         140.8199  145.5845  158.0683 C.ar    1  UNL1        0.1634
     18 C         142.0845  145.1712  157.3755 C.ar    1  UNL1        0.0388
     19 C         142.2246  145.3609  155.8942 C.ar    1  UNL1        0.0047
     20 C         141.1000  145.9638  155.1056 C.ar    1  UNL1        0.0208
     21 C         139.8353  146.3770  155.7984 C.ar    1  UNL1        0.1006
     22 N         139.6953  146.1874  157.2797 N.ar    1  UNL1       -0.2250
     23 C         142.5981  139.4311  168.1998 C.3     1  UNL1        0.0437
     24 C         142.2979  139.8901  169.5960 C.3     1  UNL1        0.0768
     25 N         141.6580  141.2273  169.8246 N.3     1  UNL1       -0.2737
     26 C         142.3773  142.5352  169.9729 C.3     1  UNL1        0.0721
     27 C         141.3503  143.6077  170.1849 C.3     1  UNL1        0.0187
     28 C         139.9962  142.9626  170.1677 C.3     1  UNL1        0.0174
     29 C         140.1864  141.4915  169.9450 C.3     1  UNL1        0.0576
     30 C         139.0963  140.4648  169.8580 C.3     1  UNL1        0.0173
@<TRIPOS>BOND
     1    11    12    1
     2    12    13   ar
     3    13     1    1
     4     1     2   ar
     5     2     3   ar
     6     3     4   ar
     7     4     5   ar
     8     5     6   ar
     9     6    23    1
    10    23    24    1
    11    24    25    1
    12    25    26    1
    13    26    27    1
    14    27    28    1
    15    28    29    1
    16    29    30    1
    17     6     7   ar
    18     7     8   ar
    19     8     9   ar
    20     9    10   ar
    21    13    14   ar
    22    14    15   ar
    23    15    16   ar
    24    16    17    1
    25    17    18   ar
    26    18    19   ar
    27    19    20   ar
    28    20    21   ar
    29    21    22   ar
    30    16    12   ar
    31    22    17   ar
    32    10     1   ar
    33     9     4   ar
    34    29    25    1
@<TRIPOS>MOLECULE
*****
 30 34 0 0 0
SMALL
GASTEIGER

@<TRIPOS>ATOM
      1 C         139.8299  138.8523  162.1916 C.ar    1  UNL1        0.0839
      2 C         139.2794  137.6438  162.8890 C.ar    1  UNL1        0.0192
      3 C         139.0250  137.6815  164.3667 C.ar    1  UNL1        0.0030
      4 C         139.3211  138.9278  165.1471 C.ar    1  UNL1        0.0174
      5 C         139.0666  138.9655  166.6250 C.ar    1  UNL1       -0.0027
      6 C         139.3627  140.2118  167.4054 C.ar    1  UNL1       -0.0207
      7 C         139.9132  141.4204  166.7080 C.ar    1  UNL1       -0.0027
      8 C         140.1676  141.3827  165.2303 C.ar    1  UNL1        0.0188
      9 C         139.8716  140.1364  164.4498 C.ar    1  UNL1        0.0812
     10 N         140.1260  140.0986  162.9721 N.ar    1  UNL1       -0.2453
     11 C         142.6060  137.9285  160.7462 C.3     1  UNL1        0.0523
     12 C         141.3604  138.3900  160.0494 C.ar    1  UNL1        0.0655
     13 C         140.0844  138.8146  160.7138 C.ar    1  UNL1        0.0522
     14 C         139.1075  139.1949  159.6410 C.ar    1  UNL1        0.1232
     15 N         139.7797  139.0053  158.3135 N.ar    1  UNL1       -0.1624
     16 N         141.1722  138.5079  158.5660 N.ar    1  UNL1       -0.2161
     17 C         142.1965  138.1850  157.5188 C.ar    1  UNL1        0.1634
     18 C         142.5140  136.7549  157.1960 C.ar    1  UNL1        0.0388
     19 C         143.5383  136.4320  156.1489 C.ar    1  UNL1        0.0047
     20 C         144.2451  137.5392  155.4245 C.ar    1  UNL1        0.0208
     21 C         143.9275  138.9692  155.7473 C.ar    1  UNL1        0.1006
     22 N         142.9033  139.2921  156.7945 N.ar    1  UNL1       -0.2250
     23 C         139.1083  140.2496  168.8832 C.3     1  UNL1        0.0437
     24 C         140.2461  140.0742  169.8448 C.3     1  UNL1        0.0768
     25 N         141.3759  141.0607  169.8578 N.3     1  UNL1       -0.2737
     26 C         141.4591  142.2950  170.7062 C.3     1  UNL1        0.0721
     27 C         142.7556  142.9833  170.3974 C.3     1  UNL1        0.0187
     28 C         143.4737  142.1744  169.3580 C.3     1  UNL1        0.0174
     29 C         142.6210  140.9862  169.0246 C.3     1  UNL1        0.0576
     30 C         142.9548  139.9122  168.0322 C.3     1  UNL1        0.0173
@<TRIPOS>BOND
     1    11    12    1
     2    12    13   ar
     3    13     1    1
     4     1     2   ar
     5     2     3   ar
     6     3     4   ar
     7     4     5   ar
     8     5     6   ar
     9     6    23    1
    10    23    24    1
    11    24    25    1
    12    25    26    1
    13    26    27    1
    14    27    28    1
    15    28    29    1
    16    29    30    1
    17     6     7   ar
    18     7     8   ar
    19     8     9   ar
    20     9    10   ar
    21    13    14   ar
    22    14    15   ar
    23    15    16   ar
    24    16    17    1
    25    17    18   ar
    26    18    19   ar
    27    19    20   ar
    28    20    21   ar
    29    21    22   ar
    30    16    12   ar
    31    22    17   ar
    32    10     1   ar
    33     9     4   ar
    34    29    25    1
@<TRIPOS>MOLECULE
*****
 30 34 0 0 0
SMALL
GASTEIGER

@<TRIPOS>ATOM
      1 C         141.4543  138.3872  159.6150 C.ar    1  UNL1        0.0839
      2 C         139.9708  138.5465  159.4605 C.ar    1  UNL1        0.0192
      3 C         139.0715  138.3872  160.6504 C.ar    1  UNL1        0.0030
      4 C         139.6557  138.0685  161.9947 C.ar    1  UNL1        0.0174
      5 C         138.7564  137.9092  163.1846 C.ar    1  UNL1       -0.0027
      6 C         139.3405  137.5905  164.5289 C.ar    1  UNL1       -0.0207
      7 C         140.8241  137.4312  164.6833 C.ar    1  UNL1       -0.0027
      8 C         141.7234  137.5906  163.4935 C.ar    1  UNL1        0.0188
      9 C         141.1392  137.9092  162.1491 C.ar    1  UNL1        0.0812
     10 N         142.0385  138.0686  160.9593 N.ar    1  UNL1       -0.2453
     11 C         142.8740  141.1596  158.6412 C.3     1  UNL1        0.0523
     12 C         143.0062  139.8209  157.9775 C.ar    1  UNL1        0.0655
     13 C         142.3536  138.5466  158.4250 C.ar    1  UNL1        0.0522
     14 C         142.7583  137.4597  157.4739 C.ar    1  UNL1        0.1232
     15 N         143.6610  138.0622  156.4384 N.ar    1  UNL1       -0.1624
     16 N         143.8142  139.5216  156.7497 N.ar    1  UNL1       -0.2161
     17 C         144.6318  140.5083  155.9700 C.ar    1  UNL1        0.1634
     18 C         144.2683  140.8277  154.5501 C.ar    1  UNL1        0.0388
     19 C         145.0859  141.8144  153.7705 C.ar    1  UNL1        0.0047
     20 C         146.2670  142.4817  154.4107 C.ar    1  UNL1        0.0208
     21 C         146.6304  142.1623  155.8305 C.ar    1  UNL1        0.1006
     22 N         145.8128  141.1756  156.6102 N.ar    1  UNL1       -0.2250
     23 C         138.4413  137.4311  165.7188 C.3     1  UNL1        0.0437
     24 C         138.0006  138.6381  166.4929 C.3     1  UNL1        0.0768
     25 N         138.9241  139.8103  166.6444 N.3     1  UNL1       -0.2737
     26 C         139.9229  140.0093  167.7457 C.3     1  UNL1        0.0721
     27 C         140.6272  141.3113  167.5031 C.3     1  UNL1        0.0187
     28 C         140.0636  141.9169  166.2518 C.3     1  UNL1        0.0174
     29 C         139.0111  140.9892  165.7211 C.3     1  UNL1        0.0576
     30 C         138.1898  141.2030  164.4843 C.3     1  UNL1        0.0173
@<TRIPOS>BOND
     1    11    12    1
     2    12    13   ar
     3    13     1    1
     4     1     2   ar
     5     2     3   ar
     6     3     4   ar
     7     4     5   ar
     8     5     6   ar
     9     6    23    1
    10    23    24    1
    11    24    25    1
    12    25    26    1
    13    26    27    1
    14    27    28    1
    15    28    29    1
    16    29    30    1
    17     6     7   ar
    18     7     8   ar
    19     8     9   ar
    20     9    10   ar
    21    13    14   ar
    22    14    15   ar
    23    15    16   ar
    24    16    17    1
    25    17    18   ar
    26    18    19   ar
    27    19    20   ar
    28    20    21   ar
    29    21    22   ar
    30    16    12   ar
    31    22    17   ar
    32    10     1   ar
    33     9     4   ar
    34    29    25    1
@<TRIPOS>MOLECULE
*****
 30 34 0 0 0
SMALL
GASTEIGER

@<TRIPOS>ATOM
      1 C         140.6359  139.8564  161.9142 C.ar    1  UNL1        0.0839
      2 C         141.5850  140.8229  162.5585 C.ar    1  UNL1        0.0192
      3 C         141.5142  141.0713  164.0361 C.ar    1  UNL1        0.0030
      4 C         140.4943  140.3533  164.8693 C.ar    1  UNL1        0.0174
      5 C         140.4235  140.6018  166.3470 C.ar    1  UNL1       -0.0027
      6 C         139.4036  139.8838  167.1802 C.ar    1  UNL1       -0.0207
      7 C         138.4545  138.9173  166.5358 C.ar    1  UNL1       -0.0027
      8 C         138.5253  138.6688  165.0583 C.ar    1  UNL1        0.0188
      9 C         139.5452  139.3868  164.2250 C.ar    1  UNL1        0.0812
     10 N         139.6160  139.1384  162.7475 N.ar    1  UNL1       -0.2453
     11 C         142.5332  137.6563  160.4278 C.3     1  UNL1        0.0523
     12 C         141.5788  138.5966  159.7534 C.ar    1  UNL1        0.0655
     13 C         140.7066  139.6079  160.4366 C.ar    1  UNL1        0.0522
     14 C         139.9178  140.3270  159.3828 C.ar    1  UNL1        0.1232
     15 N         140.3023  139.7602  158.0483 N.ar    1  UNL1       -0.1624
     16 N         141.3289  138.6907  158.2774 N.ar    1  UNL1       -0.2161
     17 C         141.9895  137.8611  157.2166 C.ar    1  UNL1        0.1634
     18 C         141.2256  136.7615  156.5403 C.ar    1  UNL1        0.0388
     19 C         141.8863  135.9319  155.4795 C.ar    1  UNL1        0.0047
     20 C         143.3108  136.2018  155.0951 C.ar    1  UNL1        0.0208
     21 C         144.0747  137.3014  155.7714 C.ar    1  UNL1        0.1006
     22 N         143.4141  138.1311  156.8322 N.ar    1  UNL1       -0.2250
     23 C         139.3328  140.1322  168.6578 C.3     1  UNL1        0.0437
     24 C         140.5427  139.9059  169.5152 C.3     1  UNL1        0.0768
     25 N         141.5392  141.0096  169.7126 N.3     1  UNL1       -0.2737
     26 C         143.0144  140.9220  169.4554 C.3     1  UNL1        0.0721
     27 C         143.6223  142.2529  169.7856 C.3     1  UNL1        0.0187
     28 C         142.5228  143.1630  170.2469 C.3     1  UNL1        0.0174
     29 C         141.2354  142.3946  170.2017 C.3     1  UNL1        0.0576
     30 C         139.8818  142.9192  170.5794 C.3     1  UNL1        0.0173
@<TRIPOS>BOND
     1    11    12    1
     2    12    13   ar
     3    13     1    1
     4     1     2   ar
     5     2     3   ar
     6     3     4   ar
     7     4     5   ar
     8     5     6   ar
     9     6    23    1
    10    23    24    1
    11    24    25    1
    12    25    26    1
    13    26    27    1
    14    27    28    1
    15    28    29    1
    16    29    30    1
    17     6     7   ar
    18     7     8   ar
    19     8     9   ar
    20     9    10   ar
    21    13    14   ar
    22    14    15   ar
    23    15    16   ar
    24    16    17    1
    25    17    18   ar
    26    18    19   ar
    27    19    20   ar
    28    20    21   ar
    29    21    22   ar
    30    16    12   ar
    31    22    17   ar
    32    10     1   ar
    33     9     4   ar
    34    29    25    1
@<TRIPOS>MOLECULE
*****
 30 34 0 0 0
SMALL
GASTEIGER

@<TRIPOS>ATOM
      1 C         142.4043  138.1990  159.9039 C.ar    1  UNL1        0.0839
      2 C         143.6156  139.0285  160.2115 C.ar    1  UNL1        0.0192
      3 C         143.9971  139.2988  161.6367 C.ar    1  UNL1        0.0030
      4 C         143.1674  138.7397  162.7543 C.ar    1  UNL1        0.0174
      5 C         143.5490  139.0102  164.1796 C.ar    1  UNL1       -0.0027
      6 C         142.7193  138.4511  165.2972 C.ar    1  UNL1       -0.0207
      7 C         141.5079  137.6215  164.9895 C.ar    1  UNL1       -0.0027
      8 C         141.1264  137.3512  163.5642 C.ar    1  UNL1        0.0188
      9 C         141.9561  137.9103  162.4467 C.ar    1  UNL1        0.0812
     10 N         141.5745  137.6399  161.0215 N.ar    1  UNL1       -0.2453
     11 C         139.7244  139.2910  158.3954 C.3     1  UNL1        0.0523
     12 C         140.7908  138.4305  157.7853 C.ar    1  UNL1        0.0655
     13 C         142.0226  137.9286  158.4786 C.ar    1  UNL1        0.0522
     14 C         142.8058  137.1087  157.4965 C.ar    1  UNL1        0.1232
     15 N         142.0580  137.1040  156.1962 N.ar    1  UNL1       -0.1624
     16 N         140.8127  137.9209  156.3747 N.ar    1  UNL1       -0.2161
     17 C         139.7719  138.1824  155.3266 C.ar    1  UNL1        0.1634
     18 C         140.0472  139.1616  154.2241 C.ar    1  UNL1        0.0388
     19 C         139.0065  139.4230  153.1760 C.ar    1  UNL1        0.0047
     20 C         137.6905  138.7052  153.2304 C.ar    1  UNL1        0.0208
     21 C         137.4153  137.7260  154.3328 C.ar    1  UNL1        0.1006
     22 N         138.4560  137.4646  155.3809 N.ar    1  UNL1       -0.2250
     23 C         143.1009  138.7214  166.7224 C.3     1  UNL1        0.0437
     24 C         142.7269  140.0244  167.3647 C.3     1  UNL1        0.0768
     25 N         141.5699  140.0863  168.3172 N.3     1  UNL1       -0.2737
     26 C         141.6481  139.9536  169.8093 C.3     1  UNL1        0.0721
     27 C         140.2580  140.0769  170.3591 C.3     1  UNL1        0.0187
     28 C         139.3206  140.2859  169.2068 C.3     1  UNL1        0.0174
     29 C         140.1314  140.2916  167.9449 C.3     1  UNL1        0.0576
     30 C         139.5975  140.4712  166.5547 C.3     1  UNL1        0.0173
@<TRIPOS>BOND
     1    11    12    1
     2    12    13   ar
     3    13     1    1
     4     1     2   ar
     5     2     3   ar
     6     3     4   ar
     7     4     5   ar
     8     5     6   ar
     9     6    23    1
    10    23    24    1
    11    24    25    1
    12    25    26    1
    13    26    27    1
    14    27    28    1
    15    28    29    1
    16    29    30    1
    17     6     7   ar
    18     7     8   ar
    19     8     9   ar
    20     9    10   ar
    21    13    14   ar
    22    14    15   ar
    23    15    16   ar
    24    16    17    1
    25    17    18   ar
    26    18    19   ar
    27    19    20   ar
    28    20    21   ar
    29    21    22   ar
    30    16    12   ar
    31    22    17   ar
    32    10     1   ar
    33     9     4   ar
    34    29    25    1
@<TRIPOS>MOLECULE
*****
 30 34 0 0 0
SMALL
GASTEIGER

@<TRIPOS>ATOM
      1 C         139.2765  141.0514  163.3859 C.ar    1  UNL1        0.0839
      2 C         138.2354  140.4937  164.3106 C.ar    1  UNL1        0.0192
      3 C         138.6287  139.9967  165.6701 C.ar    1  UNL1        0.0030
      4 C         140.0630  140.0574  166.1049 C.ar    1  UNL1        0.0174
      5 C         140.4562  139.5604  167.4645 C.ar    1  UNL1       -0.0027
      6 C         141.8905  139.6211  167.8993 C.ar    1  UNL1       -0.0207
      7 C         142.9316  140.1788  166.9745 C.ar    1  UNL1       -0.0027
      8 C         142.5384  140.6758  165.6150 C.ar    1  UNL1        0.0188
      9 C         141.1041  140.6151  165.1802 C.ar    1  UNL1        0.0812
     10 N         140.7108  141.1121  163.8207 N.ar    1  UNL1       -0.2453
     11 C         139.7177  139.4718  160.5645 C.3     1  UNL1        0.0523
     12 C         139.0861  140.8223  160.7295 C.ar    1  UNL1        0.0655
     13 C         138.8833  141.5484  162.0263 C.ar    1  UNL1        0.0522
     14 C         138.2182  142.8587  161.7248 C.ar    1  UNL1        0.1232
     15 N         138.0100  142.9424  160.2417 N.ar    1  UNL1       -0.1624
     16 N         138.5464  141.6839  159.6265 N.ar    1  UNL1       -0.2161
     17 C         138.5435  141.3462  158.1650 C.ar    1  UNL1        0.1634
     18 C         139.7648  141.6043  157.3333 C.ar    1  UNL1        0.0388
     19 C         139.7620  141.2666  155.8718 C.ar    1  UNL1        0.0047
     20 C         138.5378  140.6708  155.2421 C.ar    1  UNL1        0.0208
     21 C         137.3165  140.4128  156.0739 C.ar    1  UNL1        0.1006
     22 N         137.3194  140.7504  157.5353 N.ar    1  UNL1       -0.2250
     23 C         142.2838  139.1241  169.2588 C.3     1  UNL1        0.0437
     24 C         141.9627  139.9385  170.4769 C.3     1  UNL1        0.0768
     25 N         141.4725  141.3484  170.3287 N.3     1  UNL1       -0.2737
     26 C         140.0492  141.8049  170.4548 C.3     1  UNL1        0.0721
     27 C         140.0167  143.2879  170.2324 C.3     1  UNL1        0.0187
     28 C         141.4199  143.7480  169.9689 C.3     1  UNL1        0.0174
     29 C         142.3196  142.5493  170.0284 C.3     1  UNL1        0.0576
     30 C         143.8056  142.5512  169.8236 C.3     1  UNL1        0.0173
@<TRIPOS>BOND
     1    11    12    1
     2    12    13   ar
     3    13     1    1
     4     1     2   ar
     5     2     3   ar
     6     3     4   ar
     7     4     5   ar
     8     5     6   ar
     9     6    23    1
    10    23    24    1
    11    24    25    1
    12    25    26    1
    13    26    27    1
    14    27    28    1
    15    28    29    1
    16    29    30    1
    17     6     7   ar
    18     7     8   ar
    19     8     9   ar
    20     9    10   ar
    21    13    14   ar
    22    14    15   ar
    23    15    16   ar
    24    16    17    1
    25    17    18   ar
    26    18    19   ar
    27    19    20   ar
    28    20    21   ar
    29    21    22   ar
    30    16    12   ar
    31    22    17   ar
    32    10     1   ar
    33     9     4   ar
    34    29    25    1
@<TRIPOS>MOLECULE
*****
 30 34 0 0 0
SMALL
GASTEIGER

@<TRIPOS>ATOM
      1 C         142.3723  138.4340  158.2467 C.ar    1  UNL1        0.0839
      2 C         142.8272  139.8168  157.8853 C.ar    1  UNL1        0.0192
      3 C         143.5120  140.6726  158.9093 C.ar    1  UNL1        0.0030
      4 C         143.7419  140.1456  160.2947 C.ar    1  UNL1        0.0174
      5 C         144.4268  141.0015  161.3186 C.ar    1  UNL1       -0.0027
      6 C         144.6567  140.4744  162.7040 C.ar    1  UNL1       -0.0207
      7 C         144.2018  139.0914  163.0654 C.ar    1  UNL1       -0.0027
      8 C         143.5170  138.2356  162.0415 C.ar    1  UNL1        0.0188
      9 C         143.2871  138.7627  160.6561 C.ar    1  UNL1        0.0812
     10 N         142.6022  137.9069  159.6321 N.ar    1  UNL1       -0.2453
     11 C         143.5680  135.7027  156.9199 C.3     1  UNL1        0.0523
     12 C         142.2371  136.3226  156.6129 C.ar    1  UNL1        0.0655
     13 C         141.6874  137.5781  157.2227 C.ar    1  UNL1        0.0522
     14 C         140.3328  137.8273  156.6288 C.ar    1  UNL1        0.1232
     15 N         140.0452  136.7260  155.6519 N.ar    1  UNL1       -0.1624
     16 N         141.2221  135.7960  155.6421 N.ar    1  UNL1       -0.2161
     17 C         141.3599  134.5570  154.8079 C.ar    1  UNL1        0.1634
     18 C         141.6120  134.6696  153.3335 C.ar    1  UNL1        0.0388
     19 C         141.7498  133.4306  152.4994 C.ar    1  UNL1        0.0047
     20 C         141.6354  132.0790  153.1396 C.ar    1  UNL1        0.0208
     21 C         141.3832  131.9663  154.6139 C.ar    1  UNL1        0.1006
     22 N         141.2454  133.2053  155.4481 N.ar    1  UNL1       -0.2250
     23 C         145.3415  141.3302  163.7280 C.3     1  UNL1        0.0437
     24 C         144.5308  142.0711  164.7497 C.3     1  UNL1        0.0768
     25 N         143.5208  143.0895  164.3109 N.3     1  UNL1       -0.2737
     26 C         143.7794  144.5511  164.0938 C.3     1  UNL1        0.0721
     27 C         142.4933  145.1901  163.6608 C.3     1  UNL1        0.0187
     28 C         141.4398  144.1235  163.6103 C.3     1  UNL1        0.0174
     29 C         142.0748  142.8253  164.0121 C.3     1  UNL1        0.0576
     30 C         141.3849  141.4963  164.0996 C.3     1  UNL1        0.0173
@<TRIPOS>BOND
     1    11    12    1
     2    12    13   ar
     3    13     1    1
     4     1     2   ar
     5     2     3   ar
     6     3     4   ar
     7     4     5   ar
     8     5     6   ar
     9     6    23    1
    10    23    24    1
    11    24    25    1
    12    25    26    1
    13    26    27    1
    14    27    28    1
    15    28    29    1
    16    29    30    1
    17     6     7   ar
    18     7     8   ar
    19     8     9   ar
    20     9    10   ar
    21    13    14   ar
    22    14    15   ar
    23    15    16   ar
    24    16    17    1
    25    17    18   ar
    26    18    19   ar
    27    19    20   ar
    28    20    21   ar
    29    21    22   ar
    30    16    12   ar
    31    22    17   ar
    32    10     1   ar
    33     9     4   ar
    34    29    25    1
@<TRIPOS>MOLECULE
*****
 30 34 0 0 0
SMALL
GASTEIGER

@<TRIPOS>ATOM
      1 C         142.7564  138.9212  163.6632 C.ar    1  UNL1        0.0839
      2 C         144.0711  138.8775  162.9425 C.ar    1  UNL1        0.0192
      3 C         144.1047  138.6963  161.4539 C.ar    1  UNL1        0.0030
      4 C         142.8236  138.5588  160.6860 C.ar    1  UNL1        0.0174
      5 C         142.8572  138.3776  159.1973 C.ar    1  UNL1       -0.0027
      6 C         141.5761  138.2401  158.4294 C.ar    1  UNL1       -0.0207
      7 C         140.2612  138.2839  159.1502 C.ar    1  UNL1       -0.0027
      8 C         140.2276  138.4650  160.6388 C.ar    1  UNL1        0.0188
      9 C         141.5088  138.6025  161.4067 C.ar    1  UNL1        0.0812
     10 N         141.4752  138.7837  162.8953 N.ar    1  UNL1       -0.2453
     11 C         140.9553  141.1030  165.2898 C.3     1  UNL1        0.0523
     12 C         141.8948  140.1053  165.8995 C.ar    1  UNL1        0.0655
     13 C         142.7227  139.1024  165.1519 C.ar    1  UNL1        0.0522
     14 C         143.5110  138.3126  166.1543 C.ar    1  UNL1        0.1232
     15 N         143.1703  138.8273  167.5214 N.ar    1  UNL1       -0.1624
     16 N         142.1715  139.9353  167.3640 N.ar    1  UNL1       -0.2161
     17 C         141.5571  140.7331  168.4757 C.ar    1  UNL1        0.1634
     18 C         140.1407  140.4702  168.8936 C.ar    1  UNL1        0.0388
     19 C         139.5263  141.2680  170.0054 C.ar    1  UNL1        0.0047
     20 C         140.3285  142.3287  170.6992 C.ar    1  UNL1        0.0208
     21 C         141.7449  142.5916  170.2814 C.ar    1  UNL1        0.1006
     22 N         142.3592  141.7938  169.1696 N.ar    1  UNL1       -0.2250
     23 C         141.6097  138.0589  156.9408 C.3     1  UNL1        0.0437
     24 C         142.6992  137.2444  156.3088 C.3     1  UNL1        0.0768
     25 N         142.6103  135.7470  156.3053 N.3     1  UNL1       -0.2737
     26 C         143.3228  134.8193  157.2442 C.3     1  UNL1        0.0721
     27 C         142.9462  133.4134  156.8815 C.3     1  UNL1        0.0187
     28 C         142.0008  133.4723  155.7183 C.3     1  UNL1        0.0174
     29 C         141.7933  134.9145  155.3622 C.3     1  UNL1        0.0576
     30 C         140.9217  135.4332  154.2571 C.3     1  UNL1        0.0173
@<TRIPOS>BOND
     1    11    12    1
     2    12    13   ar
     3    13     1    1
     4     1     2   ar
     5     2     3   ar
     6     3     4   ar
     7     4     5   ar
     8     5     6   ar
     9     6    23    1
    10    23    24    1
    11    24    25    1
    12    25    26    1
    13    26    27    1
    14    27    28    1
    15    28    29    1
    16    29    30    1
    17     6     7   ar
    18     7     8   ar
    19     8     9   ar
    20     9    10   ar
    21    13    14   ar
    22    14    15   ar
    23    15    16   ar
    24    16    17    1
    25    17    18   ar
    26    18    19   ar
    27    19    20   ar
    28    20    21   ar
    29    21    22   ar
    30    16    12   ar
    31    22    17   ar
    32    10     1   ar
    33     9     4   ar
    34    29    25    1
@<TRIPOS>MOLECULE
*****
 30 34 0 0 0
SMALL
GASTEIGER

@<TRIPOS>ATOM
      1 C         141.0630  138.5185  162.3570 C.ar    1  UNL1        0.0839
      2 C         140.2359  137.4242  162.9638 C.ar    1  UNL1        0.0192
      3 C         139.7063  137.5704  164.3595 C.ar    1  UNL1        0.0030
      4 C         140.0038  138.8110  165.1485 C.ar    1  UNL1        0.0174
      5 C         139.4742  138.9572  166.5443 C.ar    1  UNL1       -0.0027
      6 C         139.7717  140.1978  167.3332 C.ar    1  UNL1       -0.0207
      7 C         140.5989  141.2921  166.7264 C.ar    1  UNL1       -0.0027
      8 C         141.1285  141.1459  165.3306 C.ar    1  UNL1        0.0188
      9 C         140.8309  139.9053  164.5417 C.ar    1  UNL1        0.0812
     10 N         141.3605  139.7591  163.1460 N.ar    1  UNL1       -0.2453
     11 C         139.3479  138.8911  159.6058 C.3     1  UNL1        0.0523
     12 C         140.8043  138.5436  159.6966 C.ar    1  UNL1        0.0655
     13 C         141.5926  138.3723  160.9612 C.ar    1  UNL1        0.0522
     14 C         143.0035  138.0292  160.5850 C.ar    1  UNL1        0.1232
     15 N         143.0872  137.9884  159.0879 N.ar    1  UNL1       -0.1624
     16 N         141.7279  138.3063  158.5388 N.ar    1  UNL1       -0.2161
     17 C         141.3574  138.3750  157.0869 C.ar    1  UNL1        0.1634
     18 C         140.5314  137.2846  156.4713 C.ar    1  UNL1        0.0388
     19 C         140.1609  137.3532  155.0194 C.ar    1  UNL1        0.0047
     20 C         140.6165  138.5122  154.1831 C.ar    1  UNL1        0.0208
     21 C         141.4425  139.6025  154.7987 C.ar    1  UNL1        0.1006
     22 N         141.8129  139.5339  156.2506 N.ar    1  UNL1       -0.2250
     23 C         139.2422  140.3440  168.7290 C.3     1  UNL1        0.0437
     24 C         140.1745  140.2413  169.8995 C.3     1  UNL1        0.0768
     25 N         141.3951  141.1107  169.9647 N.3     1  UNL1       -0.2737
     26 C         142.8179  140.6380  169.9179 C.3     1  UNL1        0.0721
     27 C         143.7094  141.8406  170.0123 C.3     1  UNL1        0.0187
     28 C         142.8375  143.0567  170.1174 C.3     1  UNL1        0.0174
     29 C         141.4072  142.6056  170.0880 C.3     1  UNL1        0.0576
     30 C         140.2009  143.4935  170.1679 C.3     1  UNL1        0.0173
@<TRIPOS>BOND
     1    11    12    1
     2    12    13   ar
     3    13     1    1
     4     1     2   ar
     5     2     3   ar
     6     3     4   ar
     7     4     5   ar
     8     5     6   ar
     9     6    23    1
    10    23    24    1
    11    24    25    1
    12    25    26    1
    13    26    27    1
    14    27    28    1
    15    28    29    1
    16    29    30    1
    17     6     7   ar
    18     7     8   ar
    19     8     9   ar
    20     9    10   ar
    21    13    14   ar
    22    14    15   ar
    23    15    16   ar
    24    16    17    1
    25    17    18   ar
    26    18    19   ar
    27    19    20   ar
    28    20    21   ar
    29    21    22   ar
    30    16    12   ar
    31    22    17   ar
    32    10     1   ar
    33     9     4   ar
    34    29    25    1
