@<TRIPOS>MOLECULE
*****
 47 53 0 0 0
SMALL
GASTEIGER

@<TRIPOS>ATOM
      1 C         139.3750  143.1788  158.4246 C.ar    1  UNL1        0.0012
      2 C         140.0085  144.3854  157.7978 C.ar    1  UNL1       -0.0001
      3 C         140.5817  145.4672  158.6647 C.ar    1  UNL1        0.0015
      4 C         140.5213  145.3423  160.1582 C.ar    1  UNL1        0.0174
      5 C         139.8879  144.1357  160.7850 C.ar    1  UNL1        0.0652
      6 C         139.3147  143.0540  159.9182 C.ar    1  UNL1        0.0232
      7 N         139.8275  144.0109  162.2786 N.ar    1  UNL1       -0.2733
      8 C         138.7652  144.7368  163.0496 C.ar    1  UNL1        0.0829
      9 C         138.7049  144.6120  164.5431 C.ar    1  UNL1        0.0193
     10 C         139.7070  143.7612  165.2657 C.ar    1  UNL1        0.0080
     11 C         139.6467  143.6364  166.7593 C.ar    1  UNL1       -0.0039
     12 C         140.6488  142.7857  167.4819 C.ar    1  UNL1       -0.0203
     13 C         141.7111  142.0597  166.7108 C.ar    1  UNL1        0.0255
     14 C         141.7714  142.1846  165.2173 C.ar    1  UNL1        0.1444
     15 F         142.8337  141.4587  164.4463 F       1  UNL1       -0.2040
     16 C         140.7693  143.0353  164.4947 C.ar    1  UNL1        0.0839
     17 C         140.8296  143.1602  163.0012 C.ar    1  UNL1        0.2668
     18 O         141.8920  142.4343  162.2301 O.2     1  UNL1       -0.2665
     19 C         140.5885  142.6608  168.9755 C.3     1  UNL1        0.0224
     20 C         141.2498  142.7785  170.3166 C.3     1  UNL1        0.0047
     21 C         139.8227  142.3269  170.2213 C.3     1  UNL1        0.0047
     22 C         136.9517  141.2531  155.9409 C.ar    1  UNL1        0.1063
     23 C         137.5249  142.3349  156.8077 C.ar    1  UNL1        0.0210
     24 C         138.8019  142.0971  157.5578 C.ar    1  UNL1        0.0185
     25 C         139.5057  140.7776  157.4412 C.ar    1  UNL1        0.0784
     26 N         138.9326  139.6959  156.5744 N.ar    1  UNL1       -0.2911
     27 C         139.6364  138.3764  156.4578 C.3     1  UNL1        0.1336
     28 C         137.6555  139.9336  155.8242 C.ar    1  UNL1        0.2744
     29 O         137.0824  138.8519  154.9575 O.2     1  UNL1       -0.2656
     30 N         135.6747  141.4909  155.1907 N.pl3   1  UNL1       -0.2942
     31 H         135.6892  141.9817  154.3374 H       1  UNL1        0.1537
     32 C         131.7778  139.9608  156.8406 C.ar    1  UNL1        0.0675
     33 C         131.7777  140.9682  155.7293 C.ar    1  UNL1        0.0190
     34 C         133.0767  141.4782  155.1793 C.ar    1  UNL1        0.0357
     35 C         134.3758  140.9808  155.7407 C.ar    1  UNL1        0.1324
     36 N         134.3758  139.9735  156.8521 N.ar    1  UNL1       -0.2278
     37 C         133.0767  139.4634  157.4020 C.ar    1  UNL1        0.1147
     38 C         126.5816  137.9207  159.0404 C.3     1  UNL1        0.0897
     39 N         127.8807  138.4308  158.4904 N.3     1  UNL1       -0.2686
     40 C         127.8835  139.5365  157.4769 C.3     1  UNL1        0.0938
     41 C         129.1825  140.0465  156.9270 C.3     1  UNL1        0.1082
     42 N         130.4787  139.4507  157.3906 N.pl3   1  UNL1       -0.3034
     43 C         130.4759  138.3450  158.4042 C.3     1  UNL1        0.1082
     44 C         129.1769  137.8350  158.9541 C.3     1  UNL1        0.0938
     45 C         138.6812  141.8474  160.5450 C.3     1  UNL1        0.1650
     46 O         139.5385  140.7123  161.0211 O.3     1  UNL1       -0.3772
     47 H         139.9705  140.2924  160.2609 H       1  UNL1        0.2109
@<TRIPOS>BOND
     1    38    39    1
     2    39    40    1
     3    40    41    1
     4    41    42    1
     5    42    32    1
     6    32    33   ar
     7    33    34   ar
     8    34    35   ar
     9    35    30    1
    10    30    22    1
    11    22    23   ar
    12    23    24   ar
    13    24     1    1
    14     1     2   ar
    15     2     3   ar
    16     3     4   ar
    17     4     5   ar
    18     5     7    1
    19     7     8   ar
    20     8     9   ar
    21     9    10   ar
    22    10    11   ar
    23    11    12   ar
    24    12    19    1
    25    19    20    1
    26    20    21    1
    27    12    13   ar
    28    13    14   ar
    29    14    15    1
    30    14    16   ar
    31    16    17   ar
    32    17    18    2
    33     5     6   ar
    34     6    45    1
    35    45    46    1
    36    24    25   ar
    37    25    26   ar
    38    26    27    1
    39    26    28   ar
    40    28    29    2
    41    35    36   ar
    42    36    37   ar
    43    42    43    1
    44    43    44    1
    45    44    39    1
    46    37    32   ar
    47    28    22   ar
    48     6     1   ar
    49    17     7   ar
    50    16    10   ar
    51    21    19    1
    52    30    31    1
    53    46    47    1
@<TRIPOS>MOLECULE
*****
 47 53 0 0 0
SMALL
GASTEIGER

@<TRIPOS>ATOM
      1 C         139.8149  140.0423  158.2536 C.ar    1  UNL1        0.0012
      2 C         140.9530  139.2246  157.7188 C.ar    1  UNL1       -0.0001
      3 C         141.7887  138.4008  158.6531 C.ar    1  UNL1        0.0015
      4 C         141.4863  138.3946  160.1223 C.ar    1  UNL1        0.0174
      5 C         140.3481  139.2123  160.6571 C.ar    1  UNL1        0.0652
      6 C         139.5125  140.0361  159.7229 C.ar    1  UNL1        0.0232
      7 N         140.0457  139.2061  162.1264 N.ar    1  UNL1       -0.2733
      8 C         139.1640  138.1401  162.7061 C.ar    1  UNL1        0.0829
      9 C         138.8616  138.1340  164.1753 C.ar    1  UNL1        0.0193
     10 C         139.4409  139.1938  165.0647 C.ar    1  UNL1        0.0080
     11 C         139.1385  139.1876  166.5339 C.ar    1  UNL1       -0.0039
     12 C         139.7178  140.2475  167.4233 C.ar    1  UNL1       -0.0203
     13 C         140.5996  141.3136  166.8435 C.ar    1  UNL1        0.0255
     14 C         140.9020  141.3197  165.3744 C.ar    1  UNL1        0.1444
     15 F         141.7837  142.3857  164.7946 F       1  UNL1       -0.2040
     16 C         140.3227  140.2598  164.4850 C.ar    1  UNL1        0.0839
     17 C         140.6250  140.2660  163.0158 C.ar    1  UNL1        0.2668
     18 O         141.5068  141.3320  162.4360 O.2     1  UNL1       -0.2665
     19 C         139.4155  140.2414  168.8925 C.3     1  UNL1        0.0224
     20 C         139.8878  140.2563  170.3161 C.3     1  UNL1        0.0047
     21 C         138.4192  140.2158  170.0136 C.3     1  UNL1        0.0047
     22 C         137.0557  141.0409  155.5816 C.ar    1  UNL1        0.1063
     23 C         137.8915  140.2170  156.5159 C.ar    1  UNL1        0.0210
     24 C         138.9792  140.8661  157.3194 C.ar    1  UNL1        0.0185
     25 C         139.2312  142.3390  157.1885 C.ar    1  UNL1        0.0784
     26 N         138.3955  143.1628  156.2542 N.ar    1  UNL1       -0.2911
     27 C         138.6476  144.6357  156.1234 C.3     1  UNL1        0.1336
     28 C         137.3078  142.5137  155.4507 C.ar    1  UNL1        0.2744
     29 O         136.4721  143.3375  154.5165 O.2     1  UNL1       -0.2656
     30 N         135.9680  140.3918  154.7781 N.pl3   1  UNL1       -0.2942
     31 H         136.1440  140.1042  153.8532 H       1  UNL1        0.1537
     32 C         131.9004  139.7591  156.5957 C.ar    1  UNL1        0.0675
     33 C         132.1954  141.0196  155.8380 C.ar    1  UNL1        0.0190
     34 C         133.5513  141.2305  155.2321 C.ar    1  UNL1        0.0357
     35 C         134.6122  140.1809  155.3840 C.ar    1  UNL1        0.1324
     36 N         134.3171  138.9204  156.1417 N.ar    1  UNL1       -0.2278
     37 C         132.9611  138.7096  156.7476 C.ar    1  UNL1        0.1147
     38 C         126.4766  138.9158  159.0191 C.3     1  UNL1        0.0897
     39 N         127.8326  139.1267  158.4132 N.3     1  UNL1       -0.2686
     40 C         127.9994  140.0677  157.2571 C.3     1  UNL1        0.0938
     41 C         129.3553  140.2785  156.6513 C.3     1  UNL1        0.1082
     42 N         130.5444  139.5483  157.2016 N.pl3   1  UNL1       -0.3034
     43 C         130.3776  138.6073  158.3577 C.3     1  UNL1        0.1082
     44 C         129.0217  138.3965  158.9635 C.3     1  UNL1        0.0938
     45 C         138.3743  140.8538  160.2577 C.3     1  UNL1        0.1650
     46 O         137.1078  140.1800  160.6959 O.3     1  UNL1       -0.3772
     47 H         136.6724  139.7788  159.9276 H       1  UNL1        0.2109
@<TRIPOS>BOND
     1    38    39    1
     2    39    40    1
     3    40    41    1
     4    41    42    1
     5    42    32    1
     6    32    33   ar
     7    33    34   ar
     8    34    35   ar
     9    35    30    1
    10    30    22    1
    11    22    23   ar
    12    23    24   ar
    13    24     1    1
    14     1     2   ar
    15     2     3   ar
    16     3     4   ar
    17     4     5   ar
    18     5     7    1
    19     7     8   ar
    20     8     9   ar
    21     9    10   ar
    22    10    11   ar
    23    11    12   ar
    24    12    19    1
    25    19    20    1
    26    20    21    1
    27    12    13   ar
    28    13    14   ar
    29    14    15    1
    30    14    16   ar
    31    16    17   ar
    32    17    18    2
    33     5     6   ar
    34     6    45    1
    35    45    46    1
    36    24    25   ar
    37    25    26   ar
    38    26    27    1
    39    26    28   ar
    40    28    29    2
    41    35    36   ar
    42    36    37   ar
    43    42    43    1
    44    43    44    1
    45    44    39    1
    46    37    32   ar
    47    28    22   ar
    48     6     1   ar
    49    17     7   ar
    50    16    10   ar
    51    21    19    1
    52    30    31    1
    53    46    47    1
@<TRIPOS>MOLECULE
*****
 47 53 0 0 0
SMALL
GASTEIGER

@<TRIPOS>ATOM
      1 C         139.5088  143.2830  158.0032 C.ar    1  UNL1        0.0012
      2 C         140.2100  144.4609  157.3943 C.ar    1  UNL1       -0.0001
      3 C         140.8147  145.5124  158.2769 C.ar    1  UNL1        0.0015
      4 C         140.7181  145.3859  159.7684 C.ar    1  UNL1        0.0174
      5 C         140.0169  144.2080  160.3774 C.ar    1  UNL1        0.0652
      6 C         139.4122  143.1566  159.4948 C.ar    1  UNL1        0.0232
      7 N         139.9203  144.0816  161.8690 N.ar    1  UNL1       -0.2733
      8 C         138.8762  144.8525  162.6210 C.ar    1  UNL1        0.0829
      9 C         138.7797  144.7260  164.1125 C.ar    1  UNL1        0.0193
     10 C         139.7272  143.8286  164.8520 C.ar    1  UNL1        0.0080
     11 C         139.6307  143.7021  166.3436 C.ar    1  UNL1       -0.0039
     12 C         140.5782  142.8047  167.0830 C.ar    1  UNL1       -0.0203
     13 C         141.6223  142.0338  166.3309 C.ar    1  UNL1        0.0255
     14 C         141.7188  142.1603  164.8394 C.ar    1  UNL1        0.1444
     15 F         142.7629  141.3893  164.0874 F       1  UNL1       -0.2040
     16 C         140.7713  143.0577  164.0999 C.ar    1  UNL1        0.0839
     17 C         140.8678  143.1841  162.6084 C.ar    1  UNL1        0.2668
     18 O         141.9119  142.4132  161.8563 O.2     1  UNL1       -0.2665
     19 C         140.4817  142.6783  168.5746 C.3     1  UNL1        0.0224
     20 C         140.1826  141.8543  169.7917 C.3     1  UNL1        0.0047
     21 C         140.6136  143.2832  169.9408 C.3     1  UNL1        0.0047
     22 C         139.1733  140.3797  155.3184 C.ar    1  UNL1        0.1063
     23 C         139.7779  141.4312  156.2010 C.ar    1  UNL1        0.0210
     24 C         138.9041  142.2316  157.1207 C.ar    1  UNL1        0.0185
     25 C         137.4258  141.9807  157.1579 C.ar    1  UNL1        0.0784
     26 N         136.8211  140.9293  156.2753 N.ar    1  UNL1       -0.2911
     27 C         135.3427  140.6783  156.3125 C.3     1  UNL1        0.1336
     28 C         137.6949  140.1288  155.3556 C.ar    1  UNL1        0.2744
     29 O         137.0902  139.0774  154.4731 O.2     1  UNL1       -0.2656
     30 N         140.0470  139.5793  154.3988 N.pl3   1  UNL1       -0.2942
     31 H         140.2171  139.8957  153.4822 H       1  UNL1        0.1537
     32 C         141.8906  135.7317  155.8295 C.ar    1  UNL1        0.0675
     33 C         140.7034  135.6993  154.9131 C.ar    1  UNL1        0.0190
     34 C         140.0889  136.9818  154.4362 C.ar    1  UNL1        0.0357
     35 C         140.6615  138.2968  154.8757 C.ar    1  UNL1        0.1324
     36 N         141.8487  138.3292  155.7920 N.ar    1  UNL1       -0.2278
     37 C         142.4632  137.0466  156.2689 C.ar    1  UNL1        0.1147
     38 C         144.3486  130.6014  157.7369 C.3     1  UNL1        0.0897
     39 N         143.7340  131.8840  157.2600 N.3     1  UNL1       -0.2686
     40 C         142.5931  131.8526  156.2868 C.3     1  UNL1        0.0938
     41 C         141.9786  133.1352  155.8100 C.3     1  UNL1        0.1082
     42 N         142.5051  134.4491  156.3063 N.pl3   1  UNL1       -0.3034
     43 C         143.6461  134.4805  157.2796 C.3     1  UNL1        0.1082
     44 C         144.2605  133.1979  157.7564 C.3     1  UNL1        0.0938
     45 C         138.7110  141.9787  160.1038 C.3     1  UNL1        0.1650
     46 O         139.4955  140.7659  160.5087 O.3     1  UNL1       -0.3772
     47 H         139.8674  140.3429  159.7189 H       1  UNL1        0.2109
@<TRIPOS>BOND
     1    38    39    1
     2    39    40    1
     3    40    41    1
     4    41    42    1
     5    42    32    1
     6    32    33   ar
     7    33    34   ar
     8    34    35   ar
     9    35    30    1
    10    30    22    1
    11    22    23   ar
    12    23    24   ar
    13    24     1    1
    14     1     2   ar
    15     2     3   ar
    16     3     4   ar
    17     4     5   ar
    18     5     7    1
    19     7     8   ar
    20     8     9   ar
    21     9    10   ar
    22    10    11   ar
    23    11    12   ar
    24    12    19    1
    25    19    20    1
    26    20    21    1
    27    12    13   ar
    28    13    14   ar
    29    14    15    1
    30    14    16   ar
    31    16    17   ar
    32    17    18    2
    33     5     6   ar
    34     6    45    1
    35    45    46    1
    36    24    25   ar
    37    25    26   ar
    38    26    27    1
    39    26    28   ar
    40    28    29    2
    41    35    36   ar
    42    36    37   ar
    43    42    43    1
    44    43    44    1
    45    44    39    1
    46    37    32   ar
    47    28    22   ar
    48     6     1   ar
    49    17     7   ar
    50    16    10   ar
    51    21    19    1
    52    30    31    1
    53    46    47    1
@<TRIPOS>MOLECULE
*****
 47 53 0 0 0
SMALL
GASTEIGER

@<TRIPOS>ATOM
      1 C         141.8384  143.5253  158.7115 C.ar    1  UNL1        0.0012
      2 C         143.2616  143.2588  158.3198 C.ar    1  UNL1       -0.0001
      3 C         144.2458  142.7833  159.3473 C.ar    1  UNL1        0.0015
      4 C         143.8066  142.5744  160.7662 C.ar    1  UNL1        0.0174
      5 C         142.3834  142.8410  161.1578 C.ar    1  UNL1        0.0652
      6 C         141.3993  143.3164  160.1305 C.ar    1  UNL1        0.0232
      7 N         141.9443  142.6320  162.5769 N.ar    1  UNL1       -0.2733
      8 C         141.9221  143.7876  163.5330 C.ar    1  UNL1        0.0829
      9 C         141.4830  143.5787  164.9519 C.ar    1  UNL1        0.0193
     10 C         141.0661  142.2141  165.4148 C.ar    1  UNL1        0.0080
     11 C         140.6270  142.0052  166.8339 C.ar    1  UNL1       -0.0039
     12 C         140.2101  140.6407  167.2967 C.ar    1  UNL1       -0.0203
     13 C         140.2323  139.4851  166.3406 C.ar    1  UNL1        0.0255
     14 C         140.6714  139.6941  164.9216 C.ar    1  UNL1        0.1444
     15 F         140.6935  138.5385  163.9656 F       1  UNL1       -0.2040
     16 C         141.0883  141.0586  164.4587 C.ar    1  UNL1        0.0839
     17 C         141.5274  141.2675  163.0398 C.ar    1  UNL1        0.2668
     18 O         141.5496  140.1119  162.0836 O.2     1  UNL1       -0.2665
     19 C         139.7710  140.4318  168.7157 C.3     1  UNL1        0.0224
     20 C         140.1029  140.3054  170.1730 C.3     1  UNL1        0.0047
     21 C         138.6784  140.1962  169.7161 C.3     1  UNL1        0.0047
     22 C         139.2333  143.4951  155.7177 C.ar    1  UNL1        0.1063
     23 C         140.2175  143.0196  156.7451 C.ar    1  UNL1        0.0210
     24 C         140.8543  144.0008  157.6841 C.ar    1  UNL1        0.0185
     25 C         140.5070  145.4573  157.5958 C.ar    1  UNL1        0.0784
     26 N         139.5229  145.9328  156.5685 N.ar    1  UNL1       -0.2911
     27 C         139.1757  147.3893  156.4802 C.3     1  UNL1        0.1336
     28 C         138.8860  144.9516  155.6294 C.ar    1  UNL1        0.2744
     29 O         137.9019  145.4271  154.6021 O.2     1  UNL1       -0.2656
     30 N         138.5965  142.5139  154.7787 N.pl3   1  UNL1       -0.2942
     31 H         139.0789  142.2198  153.9725 H       1  UNL1        0.1537
     32 C         134.4807  140.9149  155.6467 C.ar    1  UNL1        0.0675
     33 C         134.7312  141.7008  154.3938 C.ar    1  UNL1        0.0190
     34 C         136.1031  142.2338  154.1045 C.ar    1  UNL1        0.0357
     35 C         137.2246  141.9809  155.0681 C.ar    1  UNL1        0.1324
     36 N         136.9741  141.1951  156.3209 N.ar    1  UNL1       -0.2278
     37 C         135.6021  140.6621  156.6102 C.ar    1  UNL1        0.1147
     38 C         128.9929  138.7830  156.8039 C.3     1  UNL1        0.0897
     39 N         130.3649  139.3160  156.5146 N.3     1  UNL1       -0.2686
     40 C         130.5296  140.6949  155.9475 C.3     1  UNL1        0.0938
     41 C         131.9015  141.2278  155.6582 C.3     1  UNL1        0.1082
     42 N         133.1087  140.3819  155.9360 N.pl3   1  UNL1       -0.3034
     43 C         132.9440  139.0031  156.5031 C.3     1  UNL1        0.1082
     44 C         131.5720  138.4701  156.7924 C.3     1  UNL1        0.0938
     45 C         139.9761  143.5830  160.5221 C.3     1  UNL1        0.1650
     46 O         139.5651  144.9552  160.9672 O.3     1  UNL1       -0.3772
     47 H         140.0066  145.1695  161.8040 H       1  UNL1        0.2109
@<TRIPOS>BOND
     1    38    39    1
     2    39    40    1
     3    40    41    1
     4    41    42    1
     5    42    32    1
     6    32    33   ar
     7    33    34   ar
     8    34    35   ar
     9    35    30    1
    10    30    22    1
    11    22    23   ar
    12    23    24   ar
    13    24     1    1
    14     1     2   ar
    15     2     3   ar
    16     3     4   ar
    17     4     5   ar
    18     5     7    1
    19     7     8   ar
    20     8     9   ar
    21     9    10   ar
    22    10    11   ar
    23    11    12   ar
    24    12    19    1
    25    19    20    1
    26    20    21    1
    27    12    13   ar
    28    13    14   ar
    29    14    15    1
    30    14    16   ar
    31    16    17   ar
    32    17    18    2
    33     5     6   ar
    34     6    45    1
    35    45    46    1
    36    24    25   ar
    37    25    26   ar
    38    26    27    1
    39    26    28   ar
    40    28    29    2
    41    35    36   ar
    42    36    37   ar
    43    42    43    1
    44    43    44    1
    45    44    39    1
    46    37    32   ar
    47    28    22   ar
    48     6     1   ar
    49    17     7   ar
    50    16    10   ar
    51    21    19    1
    52    30    31    1
    53    46    47    1
@<TRIPOS>MOLECULE
*****
 47 53 0 0 0
SMALL
GASTEIGER

@<TRIPOS>ATOM
      1 C         142.1271  143.0901  158.7096 C.ar    1  UNL1        0.0012
      2 C         141.4231  144.3273  158.2365 C.ar    1  UNL1       -0.0001
      3 C         140.6318  145.1564  159.2043 C.ar    1  UNL1        0.0015
      4 C         140.5445  144.7483  160.6450 C.ar    1  UNL1        0.0174
      5 C         141.2484  143.5111  161.1181 C.ar    1  UNL1        0.0652
      6 C         142.0397  142.6820  160.1504 C.ar    1  UNL1        0.0232
      7 N         141.1611  143.1030  162.5589 N.ar    1  UNL1       -0.2733
      8 C         142.1074  143.6906  163.5635 C.ar    1  UNL1        0.0829
      9 C         142.0200  143.2825  165.0043 C.ar    1  UNL1        0.0193
     10 C         140.9863  142.2869  165.4404 C.ar    1  UNL1        0.0080
     11 C         140.8990  141.8788  166.8813 C.ar    1  UNL1       -0.0039
     12 C         139.8653  140.8832  167.3174 C.ar    1  UNL1       -0.0203
     13 C         138.9190  140.2956  166.3127 C.ar    1  UNL1        0.0255
     14 C         139.0064  140.7037  164.8720 C.ar    1  UNL1        0.1444
     15 F         138.0601  140.1161  163.8674 F       1  UNL1       -0.2040
     16 C         140.0400  141.6993  164.4358 C.ar    1  UNL1        0.0839
     17 C         140.1274  142.1074  162.9951 C.ar    1  UNL1        0.2668
     18 O         139.1811  141.5198  161.9904 O.2     1  UNL1       -0.2665
     19 C         139.7779  140.4751  168.7581 C.3     1  UNL1        0.0224
     20 C         140.4264  139.9270  169.9947 C.3     1  UNL1        0.0047
     21 C         138.9780  140.3164  170.0171 C.3     1  UNL1        0.0047
     22 C         143.0401  140.3288  156.0093 C.ar    1  UNL1        0.1063
     23 C         142.2489  141.1579  156.9771 C.ar    1  UNL1        0.0210
     24 C         142.9183  142.2610  157.7419 C.ar    1  UNL1        0.0185
     25 C         144.3791  142.5349  157.5391 C.ar    1  UNL1        0.0784
     26 N         145.1704  141.7058  156.5715 N.ar    1  UNL1       -0.2911
     27 C         146.6312  141.9797  156.3687 C.3     1  UNL1        0.1336
     28 C         144.5009  140.6027  155.8065 C.ar    1  UNL1        0.2744
     29 O         145.2922  139.7736  154.8389 O.2     1  UNL1       -0.2656
     30 N         142.3706  139.2257  155.2445 N.pl3   1  UNL1       -0.2942
     31 H         141.7606  139.4412  154.5024 H       1  UNL1        0.1537
     32 C         143.1509  134.9318  156.3415 C.ar    1  UNL1        0.0675
     33 C         143.0049  135.3232  154.9009 C.ar    1  UNL1        0.0190
     34 C         142.7448  136.7545  154.5352 C.ar    1  UNL1        0.0357
     35 C         142.6307  137.7945  155.6102 C.ar    1  UNL1        0.1324
     36 N         142.7767  137.4031  157.0508 N.ar    1  UNL1       -0.2278
     37 C         143.0368  135.9717  157.4165 C.ar    1  UNL1        0.1147
     38 C         144.1911  129.2065  157.8042 C.3     1  UNL1        0.0897
     39 N         143.9310  130.6379  157.4385 N.3     1  UNL1       -0.2686
     40 C         142.7581  130.9894  156.5720 C.3     1  UNL1        0.0938
     41 C         142.4981  132.4207  156.2064 C.3     1  UNL1        0.1082
     42 N         143.4109  133.5005  156.7072 N.pl3   1  UNL1       -0.3034
     43 C         144.5838  133.1490  157.5737 C.3     1  UNL1        0.1082
     44 C         144.8438  131.7177  157.9393 C.3     1  UNL1        0.0938
     45 C         142.7437  141.4448  160.6235 C.3     1  UNL1        0.1650
     46 O         144.1499  141.5325  161.1384 O.3     1  UNL1       -0.3772
     47 H         144.7433  141.7907  160.4159 H       1  UNL1        0.2109
@<TRIPOS>BOND
     1    38    39    1
     2    39    40    1
     3    40    41    1
     4    41    42    1
     5    42    32    1
     6    32    33   ar
     7    33    34   ar
     8    34    35   ar
     9    35    30    1
    10    30    22    1
    11    22    23   ar
    12    23    24   ar
    13    24     1    1
    14     1     2   ar
    15     2     3   ar
    16     3     4   ar
    17     4     5   ar
    18     5     7    1
    19     7     8   ar
    20     8     9   ar
    21     9    10   ar
    22    10    11   ar
    23    11    12   ar
    24    12    19    1
    25    19    20    1
    26    20    21    1
    27    12    13   ar
    28    13    14   ar
    29    14    15    1
    30    14    16   ar
    31    16    17   ar
    32    17    18    2
    33     5     6   ar
    34     6    45    1
    35    45    46    1
    36    24    25   ar
    37    25    26   ar
    38    26    27    1
    39    26    28   ar
    40    28    29    2
    41    35    36   ar
    42    36    37   ar
    43    42    43    1
    44    43    44    1
    45    44    39    1
    46    37    32   ar
    47    28    22   ar
    48     6     1   ar
    49    17     7   ar
    50    16    10   ar
    51    21    19    1
    52    30    31    1
    53    46    47    1
@<TRIPOS>MOLECULE
*****
 47 53 0 0 0
SMALL
GASTEIGER

@<TRIPOS>ATOM
      1 C         141.1073  138.8278  159.1062 C.ar    1  UNL1        0.0012
      2 C         139.7111  138.2974  158.9664 C.ar    1  UNL1       -0.0001
      3 C         138.8432  138.1412  160.1799 C.ar    1  UNL1        0.0015
      4 C         139.3714  138.5155  161.5330 C.ar    1  UNL1        0.0174
      5 C         140.7675  139.0459  161.6727 C.ar    1  UNL1        0.0652
      6 C         141.6354  139.2021  160.4594 C.ar    1  UNL1        0.0232
      7 N         141.2956  139.4201  163.0259 N.ar    1  UNL1       -0.2733
      8 C         142.1616  138.4591  163.7851 C.ar    1  UNL1        0.0829
      9 C         142.6897  138.8333  165.1382 C.ar    1  UNL1        0.0193
     10 C         142.3518  140.1687  165.7322 C.ar    1  UNL1        0.0080
     11 C         142.8800  140.5429  167.0853 C.ar    1  UNL1       -0.0039
     12 C         142.5422  141.8783  167.6793 C.ar    1  UNL1       -0.0203
     13 C         141.6761  142.8393  166.9200 C.ar    1  UNL1        0.0255
     14 C         141.1480  142.4651  165.5669 C.ar    1  UNL1        0.1444
     15 F         140.2821  143.4261  164.8077 F       1  UNL1       -0.2040
     16 C         141.4859  141.1297  164.9730 C.ar    1  UNL1        0.0839
     17 C         140.9578  140.7555  163.6198 C.ar    1  UNL1        0.2668
     18 O         140.0918  141.7166  162.8606 O.2     1  UNL1       -0.2665
     19 C         143.0703  142.2525  169.0324 C.3     1  UNL1        0.0224
     20 C         142.8273  142.6960  170.4446 C.3     1  UNL1        0.0047
     21 C         144.2280  142.4573  169.9639 C.3     1  UNL1        0.0047
     22 C         143.6194  137.9679  156.1567 C.ar    1  UNL1        0.1063
     23 C         142.7514  137.8118  157.3701 C.ar    1  UNL1        0.0210
     24 C         141.9752  138.9840  157.8928 C.ar    1  UNL1        0.0185
     25 C         142.0669  140.3124  157.2022 C.ar    1  UNL1        0.0784
     26 N         142.9348  140.4686  155.9889 N.ar    1  UNL1       -0.2911
     27 C         143.0265  141.7969  155.2983 C.3     1  UNL1        0.1336
     28 C         143.7111  139.2963  155.4661 C.ar    1  UNL1        0.2744
     29 O         144.5791  139.4525  154.2528 O.2     1  UNL1       -0.2656
     30 N         144.3957  136.7957  155.6340 N.pl3   1  UNL1       -0.2942
     31 H         145.3279  136.9140  155.3405 H       1  UNL1        0.1537
     32 C         142.4632  132.7381  155.4074 C.ar    1  UNL1        0.0675
     33 C         142.1954  133.7570  154.3396 C.ar    1  UNL1        0.0190
     34 C         142.8396  135.1095  154.4152 C.ar    1  UNL1        0.0357
     35 C         143.7515  135.4432  155.5585 C.ar    1  UNL1        0.1324
     36 N         144.0193  134.4242  156.6262 N.ar    1  UNL1       -0.2278
     37 C         143.3751  133.0717  156.5506 C.ar    1  UNL1        0.1147
     38 C         139.8863  127.3280  155.1050 C.3     1  UNL1        0.0897
     39 N         140.5305  128.6806  155.1806 N.3     1  UNL1       -0.2686
     40 C         139.8319  129.8772  154.6063 C.3     1  UNL1        0.0938
     41 C         140.4761  131.2297  154.6819 C.3     1  UNL1        0.1082
     42 N         141.8190  131.3855  155.3318 N.pl3   1  UNL1       -0.3034
     43 C         142.5176  130.1889  155.9061 C.3     1  UNL1        0.1082
     44 C         141.8734  128.8364  155.8305 C.3     1  UNL1        0.0938
     45 C         143.0315  139.7325  160.5991 C.3     1  UNL1        0.1650
     46 O         144.1876  138.7825  160.7052 O.3     1  UNL1       -0.3772
     47 H         144.1202  138.2825  161.5337 H       1  UNL1        0.2109
@<TRIPOS>BOND
     1    38    39    1
     2    39    40    1
     3    40    41    1
     4    41    42    1
     5    42    32    1
     6    32    33   ar
     7    33    34   ar
     8    34    35   ar
     9    35    30    1
    10    30    22    1
    11    22    23   ar
    12    23    24   ar
    13    24     1    1
    14     1     2   ar
    15     2     3   ar
    16     3     4   ar
    17     4     5   ar
    18     5     7    1
    19     7     8   ar
    20     8     9   ar
    21     9    10   ar
    22    10    11   ar
    23    11    12   ar
    24    12    19    1
    25    19    20    1
    26    20    21    1
    27    12    13   ar
    28    13    14   ar
    29    14    15    1
    30    14    16   ar
    31    16    17   ar
    32    17    18    2
    33     5     6   ar
    34     6    45    1
    35    45    46    1
    36    24    25   ar
    37    25    26   ar
    38    26    27    1
    39    26    28   ar
    40    28    29    2
    41    35    36   ar
    42    36    37   ar
    43    42    43    1
    44    43    44    1
    45    44    39    1
    46    37    32   ar
    47    28    22   ar
    48     6     1   ar
    49    17     7   ar
    50    16    10   ar
    51    21    19    1
    52    30    31    1
    53    46    47    1
@<TRIPOS>MOLECULE
*****
 47 53 0 0 0
SMALL
GASTEIGER

@<TRIPOS>ATOM
      1 C         140.1852  142.9610  165.8617 C.ar    1  UNL1        0.0012
      2 C         139.2694  143.9062  166.5812 C.ar    1  UNL1       -0.0001
      3 C         138.5223  144.9566  165.8139 C.ar    1  UNL1        0.0015
      4 C         138.6911  145.0616  164.3272 C.ar    1  UNL1        0.0174
      5 C         139.6069  144.1163  163.6077 C.ar    1  UNL1        0.0652
      6 C         140.3540  143.0660  164.3749 C.ar    1  UNL1        0.0232
      7 N         139.7756  144.2214  162.1209 N.ar    1  UNL1       -0.2733
      8 C         140.6097  145.3228  161.5367 C.ar    1  UNL1        0.0829
      9 C         140.7784  145.4278  160.0499 C.ar    1  UNL1        0.0193
     10 C         140.1131  144.4314  159.1474 C.ar    1  UNL1        0.0080
     11 C         140.2818  144.5365  157.6605 C.ar    1  UNL1       -0.0039
     12 C         139.6165  143.5401  156.7580 C.ar    1  UNL1       -0.0203
     13 C         138.7825  142.4387  157.3422 C.ar    1  UNL1        0.0255
     14 C         138.6138  142.3337  158.8290 C.ar    1  UNL1        0.1444
     15 F         137.7797  141.2323  159.4131 F       1  UNL1       -0.2040
     16 C         139.2791  143.3301  159.7315 C.ar    1  UNL1        0.0839
     17 C         139.1103  143.2250  161.2183 C.ar    1  UNL1        0.2668
     18 O         138.2763  142.1236  161.8025 O.2     1  UNL1       -0.2665
     19 C         139.7853  143.6452  155.2712 C.3     1  UNL1        0.0224
     20 C         140.4353  143.1810  154.0016 C.3     1  UNL1        0.0047
     21 C         139.4274  144.2913  153.9657 C.3     1  UNL1        0.0047
     22 C         142.5020  139.8407  166.6657 C.ar    1  UNL1        0.1063
     23 C         141.7549  140.8911  165.8984 C.ar    1  UNL1        0.0210
     24 C         140.9323  141.9107  166.6290 C.ar    1  UNL1        0.0185
     25 C         140.8567  141.8799  168.1268 C.ar    1  UNL1        0.0784
     26 N         141.6037  140.8296  168.8940 N.ar    1  UNL1       -0.2911
     27 C         141.5282  140.7988  170.3918 C.3     1  UNL1        0.1336
     28 C         142.4264  139.8100  168.1635 C.ar    1  UNL1        0.2744
     29 O         143.1735  138.7596  168.9307 O.2     1  UNL1       -0.2656
     30 N         143.3246  138.8212  165.9351 N.pl3   1  UNL1       -0.2942
     31 H         143.8747  138.1792  166.4397 H       1  UNL1        0.1537
     32 C         143.2785  138.6968  161.4371 C.ar    1  UNL1        0.0675
     33 C         144.3736  139.4275  162.1560 C.ar    1  UNL1        0.0190
     34 C         144.3890  139.4690  163.6553 C.ar    1  UNL1        0.0357
     35 C         143.3092  138.7797  164.4358 C.ar    1  UNL1        0.1324
     36 N         142.2141  138.0490  163.7169 N.ar    1  UNL1       -0.2278
     37 C         142.1988  138.0076  162.2175 C.ar    1  UNL1        0.1147
     38 C         143.2170  138.5310  155.4397 C.3     1  UNL1        0.0897
     39 N         143.2324  138.5725  156.9391 N.3     1  UNL1       -0.2686
     40 C         142.7986  137.3721  157.7270 C.3     1  UNL1        0.0938
     41 C         142.8139  137.4136  159.2263 C.3     1  UNL1        0.1082
     42 N         143.2631  138.6554  159.9377 N.pl3   1  UNL1       -0.3034
     43 C         143.6969  139.8558  159.1498 C.3     1  UNL1        0.1082
     44 C         143.6815  139.8143  157.6505 C.3     1  UNL1        0.0938
     45 C         141.2698  142.1207  163.6554 C.3     1  UNL1        0.1650
     46 O         140.7110  140.9039  162.9793 O.3     1  UNL1       -0.3772
     47 H         140.3476  140.3012  163.6469 H       1  UNL1        0.2109
@<TRIPOS>BOND
     1    38    39    1
     2    39    40    1
     3    40    41    1
     4    41    42    1
     5    42    32    1
     6    32    33   ar
     7    33    34   ar
     8    34    35   ar
     9    35    30    1
    10    30    22    1
    11    22    23   ar
    12    23    24   ar
    13    24     1    1
    14     1     2   ar
    15     2     3   ar
    16     3     4   ar
    17     4     5   ar
    18     5     7    1
    19     7     8   ar
    20     8     9   ar
    21     9    10   ar
    22    10    11   ar
    23    11    12   ar
    24    12    19    1
    25    19    20    1
    26    20    21    1
    27    12    13   ar
    28    13    14   ar
    29    14    15    1
    30    14    16   ar
    31    16    17   ar
    32    17    18    2
    33     5     6   ar
    34     6    45    1
    35    45    46    1
    36    24    25   ar
    37    25    26   ar
    38    26    27    1
    39    26    28   ar
    40    28    29    2
    41    35    36   ar
    42    36    37   ar
    43    42    43    1
    44    43    44    1
    45    44    39    1
    46    37    32   ar
    47    28    22   ar
    48     6     1   ar
    49    17     7   ar
    50    16    10   ar
    51    21    19    1
    52    30    31    1
    53    46    47    1
@<TRIPOS>MOLECULE
*****
 47 53 0 0 0
SMALL
GASTEIGER

@<TRIPOS>ATOM
      1 C         142.4444  143.4491  157.9067 C.ar    1  UNL1        0.0012
      2 C         143.6524  142.9444  157.1747 C.ar    1  UNL1       -0.0001
      3 C         144.8376  142.4387  157.9426 C.ar    1  UNL1        0.0015
      4 C         144.8148  142.4377  159.4424 C.ar    1  UNL1        0.0174
      5 C         143.6067  142.9424  160.1743 C.ar    1  UNL1        0.0652
      6 C         142.4215  143.4481  159.4066 C.ar    1  UNL1        0.0232
      7 N         143.5838  142.9414  161.6742 N.ar    1  UNL1       -0.2733
      8 C         144.1031  144.1265  162.4330 C.ar    1  UNL1        0.0829
      9 C         144.0803  144.1255  163.9328 C.ar    1  UNL1        0.0193
     10 C         143.5381  142.9393  164.6738 C.ar    1  UNL1        0.0080
     11 C         143.5153  142.9383  166.1737 C.ar    1  UNL1       -0.0039
     12 C         142.9731  141.7521  166.9147 C.ar    1  UNL1       -0.0203
     13 C         142.4538  140.5670  166.1558 C.ar    1  UNL1        0.0255
     14 C         142.4767  140.5680  164.6560 C.ar    1  UNL1        0.1444
     15 F         141.9574  139.3829  163.8972 F       1  UNL1       -0.2040
     16 C         143.0188  141.7542  163.9150 C.ar    1  UNL1        0.0839
     17 C         143.0417  141.7553  162.4152 C.ar    1  UNL1        0.2668
     18 O         142.5224  140.5701  161.6564 O.2     1  UNL1       -0.2665
     19 C         142.9502  141.7511  168.4145 C.3     1  UNL1        0.0224
     20 C         143.5785  142.1274  169.7235 C.3     1  UNL1        0.0047
     21 C         142.2823  141.3729  169.7032 C.3     1  UNL1        0.0047
     22 C         139.3554  143.5529  155.4172 C.ar    1  UNL1        0.1063
     23 C         140.5407  143.0472  156.1850 C.ar    1  UNL1        0.0210
     24 C         141.2592  143.9549  157.1389 C.ar    1  UNL1        0.0185
     25 C         140.7925  145.3682  157.3250 C.ar    1  UNL1        0.0784
     26 N         139.6073  145.8739  156.5572 N.ar    1  UNL1       -0.2911
     27 C         139.1406  147.2873  156.7432 C.3     1  UNL1        0.1336
     28 C         138.8887  144.9663  155.6032 C.ar    1  UNL1        0.2744
     29 O         137.7036  145.4720  154.8354 O.2     1  UNL1       -0.2656
     30 N         138.6369  142.6453  154.4633 N.pl3   1  UNL1       -0.2942
     31 H         139.0514  142.4086  153.6022 H       1  UNL1        0.1537
     32 C         134.5871  141.0039  155.5377 C.ar    1  UNL1        0.0675
     33 C         135.7447  140.8158  156.4728 C.ar    1  UNL1        0.0190
     34 C         137.0947  141.3629  156.1147 C.ar    1  UNL1        0.0357
     35 C         137.2870  142.0982  154.8214 C.ar    1  UNL1        0.1324
     36 N         136.1293  142.2863  153.8863 N.ar    1  UNL1       -0.2278
     37 C         134.7793  141.7391  154.2445 C.ar    1  UNL1        0.1147
     38 C         129.1872  138.8154  156.9703 C.3     1  UNL1        0.0897
     39 N         130.5372  139.3626  156.6121 N.3     1  UNL1       -0.2686
     40 C         130.6522  140.7093  155.9616 C.3     1  UNL1        0.0938
     41 C         132.0021  141.2563  155.6035 C.3     1  UNL1        0.1082
     42 N         133.2371  140.4567  155.8959 N.pl3   1  UNL1       -0.3034
     43 C         133.1221  139.1101  156.5464 C.3     1  UNL1        0.1082
     44 C         131.7722  138.5630  156.9045 C.3     1  UNL1        0.0938
     45 C         141.2134  143.9529  160.1386 C.3     1  UNL1        0.1650
     46 O         140.0030  143.0784  160.2807 O.3     1  UNL1       -0.3772
     47 H         139.6108  142.9245  159.4070 H       1  UNL1        0.2109
@<TRIPOS>BOND
     1    38    39    1
     2    39    40    1
     3    40    41    1
     4    41    42    1
     5    42    32    1
     6    32    33   ar
     7    33    34   ar
     8    34    35   ar
     9    35    30    1
    10    30    22    1
    11    22    23   ar
    12    23    24   ar
    13    24     1    1
    14     1     2   ar
    15     2     3   ar
    16     3     4   ar
    17     4     5   ar
    18     5     7    1
    19     7     8   ar
    20     8     9   ar
    21     9    10   ar
    22    10    11   ar
    23    11    12   ar
    24    12    19    1
    25    19    20    1
    26    20    21    1
    27    12    13   ar
    28    13    14   ar
    29    14    15    1
    30    14    16   ar
    31    16    17   ar
    32    17    18    2
    33     5     6   ar
    34     6    45    1
    35    45    46    1
    36    24    25   ar
    37    25    26   ar
    38    26    27    1
    39    26    28   ar
    40    28    29    2
    41    35    36   ar
    42    36    37   ar
    43    42    43    1
    44    43    44    1
    45    44    39    1
    46    37    32   ar
    47    28    22   ar
    48     6     1   ar
    49    17     7   ar
    50    16    10   ar
    51    21    19    1
    52    30    31    1
    53    46    47    1
@<TRIPOS>MOLECULE
*****
 47 53 0 0 0
SMALL
GASTEIGER

@<TRIPOS>ATOM
      1 C         139.6628  143.1982  157.3874 C.ar    1  UNL1        0.0012
      2 C         140.1372  144.4914  156.7938 C.ar    1  UNL1       -0.0001
      3 C         140.8618  145.4881  157.6492 C.ar    1  UNL1        0.0015
      4 C         141.1118  145.1916  159.0981 C.ar    1  UNL1        0.0174
      5 C         140.6374  143.8983  159.6917 C.ar    1  UNL1        0.0652
      6 C         139.9129  142.9016  158.8364 C.ar    1  UNL1        0.0232
      7 N         140.8875  143.6018  161.1408 N.ar    1  UNL1       -0.2733
      8 C         142.1663  142.9400  161.5610 C.ar    1  UNL1        0.0829
      9 C         142.4163  142.6435  163.0100 C.ar    1  UNL1        0.0193
     10 C         141.3875  143.0087  164.0387 C.ar    1  UNL1        0.0080
     11 C         141.6376  142.7122  165.4877 C.ar    1  UNL1       -0.0039
     12 C         140.6088  143.0774  166.5164 C.ar    1  UNL1       -0.0203
     13 C         139.3299  143.7391  166.0960 C.ar    1  UNL1        0.0255
     14 C         139.0799  144.0356  164.6471 C.ar    1  UNL1        0.1444
     15 F         137.8011  144.6974  164.2268 F       1  UNL1       -0.2040
     16 C         140.1087  143.6704  163.6184 C.ar    1  UNL1        0.0839
     17 C         139.8587  143.9670  162.1694 C.ar    1  UNL1        0.2668
     18 O         138.5798  144.6287  161.7491 O.2     1  UNL1       -0.2665
     19 C         140.8588  142.7809  167.9653 C.3     1  UNL1        0.0224
     20 C         141.7187  142.1836  169.0395 C.3     1  UNL1        0.0047
     21 C         140.4320  142.8646  169.4009 C.3     1  UNL1        0.0047
     22 C         138.9861  140.2919  154.7709 C.ar    1  UNL1        0.1063
     23 C         139.7106  141.2887  155.6264 C.ar    1  UNL1        0.0210
     24 C         138.9383  142.2015  156.5320 C.ar    1  UNL1        0.0185
     25 C         137.4415  142.1176  156.5824 C.ar    1  UNL1        0.0784
     26 N         136.7170  141.1209  155.7270 N.ar    1  UNL1       -0.2911
     27 C         135.2202  141.0370  155.7774 C.3     1  UNL1        0.1336
     28 C         137.4893  140.2080  154.8213 C.ar    1  UNL1        0.2744
     29 O         136.7648  139.2113  153.9659 O.2     1  UNL1       -0.2656
     30 N         139.7584  139.3791  153.8653 N.pl3   1  UNL1       -0.2942
     31 H         139.8456  139.5934  152.9083 H       1  UNL1        0.1537
     32 C         141.6769  135.6611  155.5223 C.ar    1  UNL1        0.0675
     33 C         141.6136  136.9072  156.3549 C.ar    1  UNL1        0.0190
     34 C         140.9741  138.1465  155.8026 C.ar    1  UNL1        0.0357
     35 C         140.3979  138.1398  154.4176 C.ar    1  UNL1        0.1324
     36 N         140.4612  136.8937  153.5850 N.ar    1  UNL1       -0.2278
     37 C         141.1008  135.6543  154.1374 C.ar    1  UNL1        0.1147
     38 C         144.2351  130.7039  157.7319 C.3     1  UNL1        0.0897
     39 N         143.5955  131.9432  157.1795 N.3     1  UNL1       -0.2686
     40 C         144.0804  133.2947  157.6136 C.3     1  UNL1        0.0938
     41 C         143.4408  134.5339  157.0612 C.3     1  UNL1        0.1082
     42 N         142.3165  134.4218  156.0747 N.pl3   1  UNL1       -0.3034
     43 C         141.8316  133.0703  155.6406 C.3     1  UNL1        0.1082
     44 C         142.4711  131.8311  156.1930 C.3     1  UNL1        0.0938
     45 C         139.4384  141.6083  159.4300 C.3     1  UNL1        0.1650
     46 O         138.1771  141.5735  160.2411 O.3     1  UNL1       -0.3772
     47 H         138.3006  142.0892  161.0533 H       1  UNL1        0.2109
@<TRIPOS>BOND
     1    38    39    1
     2    39    40    1
     3    40    41    1
     4    41    42    1
     5    42    32    1
     6    32    33   ar
     7    33    34   ar
     8    34    35   ar
     9    35    30    1
    10    30    22    1
    11    22    23   ar
    12    23    24   ar
    13    24     1    1
    14     1     2   ar
    15     2     3   ar
    16     3     4   ar
    17     4     5   ar
    18     5     7    1
    19     7     8   ar
    20     8     9   ar
    21     9    10   ar
    22    10    11   ar
    23    11    12   ar
    24    12    19    1
    25    19    20    1
    26    20    21    1
    27    12    13   ar
    28    13    14   ar
    29    14    15    1
    30    14    16   ar
    31    16    17   ar
    32    17    18    2
    33     5     6   ar
    34     6    45    1
    35    45    46    1
    36    24    25   ar
    37    25    26   ar
    38    26    27    1
    39    26    28   ar
    40    28    29    2
    41    35    36   ar
    42    36    37   ar
    43    42    43    1
    44    43    44    1
    45    44    39    1
    46    37    32   ar
    47    28    22   ar
    48     6     1   ar
    49    17     7   ar
    50    16    10   ar
    51    21    19    1
    52    30    31    1
    53    46    47    1
