@<TRIPOS>MOLECULE
*****
 36 41 0 0 0
SMALL
GASTEIGER

@<TRIPOS>ATOM
      1 C         139.2848  139.4436  164.8653 C.ar    1  UNL1        0.1188
      2 C         138.2449  139.0449  165.8702 C.ar    1  UNL1        0.0223
      3 C         138.4655  139.3221  167.3278 C.ar    1  UNL1        0.0032
      4 C         139.7257  139.9979  167.7805 C.ar    1  UNL1        0.0190
      5 C         139.9462  140.2750  169.2381 C.ar    1  UNL1        0.0024
      6 C         141.2065  140.9508  169.6908 C.ar    1  UNL1        0.0127
      7 C         142.2463  141.3495  168.6859 C.ar    1  UNL1        0.0722
      8 CL        143.5066  142.0253  169.1386 Cl      1  UNL1       -0.0809
      9 C         142.0259  141.0724  167.2283 C.ar    1  UNL1        0.0732
     10 C         140.7656  140.3966  166.7756 C.ar    1  UNL1        0.0952
     11 N         140.5450  140.1194  165.3179 N.ar    1  UNL1       -0.2409
     12 C         139.7915  143.8473  158.3800 C.3     1  UNL1        0.1124
     13 N         139.4099  142.3967  158.3926 N.pl3   1  UNL1       -0.2987
     14 C         139.0942  141.6930  157.1060 C.3     1  UNL1        0.1387
     15 C         138.7126  140.2424  157.1186 C.3     1  UNL1        0.2269
     16 O         138.6468  139.4955  158.4177 O.3     1  UNL1       -0.4692
     17 C         138.9625  140.1991  159.7042 C.ar    1  UNL1        0.1907
     18 C         139.3441  141.6497  159.6916 C.ar    1  UNL1        0.1067
     19 C         139.6598  142.3533  160.9782 C.ar    1  UNL1        0.1382
     20 N         139.5940  141.6063  162.2773 N.ar    1  UNL1       -0.1592
     21 N         139.2124  140.1557  162.2899 N.ar    1  UNL1       -0.1869
     22 C         139.0643  139.1665  163.4076 C.ar    1  UNL1        0.2041
     23 N         138.6571  137.8515  162.8119 N.ar    1  UNL1       -0.1253
     24 N         138.5535  138.0280  161.3259 N.ar    1  UNL1       -0.1237
     25 C         138.8967  139.4521  161.0034 C.ar    1  UNL1        0.2218
     26 N         143.0657  141.4711  166.2233 N.pl3   1  UNL1       -0.3287
     27 H         143.8295  140.8766  166.0430 H       1  UNL1        0.1470
     28 C         142.9417  142.7754  165.4931 C.3     1  UNL1        0.1202
     29 C         143.3852  142.8801  164.0640 C.3     1  UNL1        0.1543
     30 F         142.0686  143.5939  163.9811 F       1  UNL1       -0.2382
     31 C         144.5478  142.1298  164.6433 C.3     1  UNL1        0.0514
     32 C         145.6966  141.7322  163.7646 C.3     1  UNL1        0.0714
     33 N         145.6828  142.0847  162.3067 N.3     1  UNL1       -0.2973
     34 C         144.5202  142.8350  161.7274 C.3     1  UNL1        0.0714
     35 C         143.3714  143.2326  162.6061 C.3     1  UNL1        0.0514
     36 H         145.7536  141.2076  161.7910 H       1  UNL1        0.1233
@<TRIPOS>BOND
     1    12    13    1
     2    13    14    1
     3    14    15    1
     4    15    16    1
     5    16    17    1
     6    17    18   ar
     7    18    19   ar
     8    19    20   ar
     9    20    21   ar
    10    21    22   ar
    11    22     1    1
    12     1     2   ar
    13     2     3   ar
    14     3     4   ar
    15     4     5   ar
    16     5     6   ar
    17     6     7   ar
    18     7     8    1
    19     7     9   ar
    20     9    26    1
    21    26    28    1
    22    28    29    1
    23    29    30    1
    24    29    31    1
    25    31    32    1
    26    32    33    1
    27    33    34    1
    28    34    35    1
    29     9    10   ar
    30    10    11   ar
    31    22    23   ar
    32    23    24   ar
    33    24    25   ar
    34    18    13    1
    35    25    21   ar
    36    25    17   ar
    37    11     1   ar
    38    10     4   ar
    39    35    29    1
    40    26    27    1
    41    33    36    1
@<TRIPOS>MOLECULE
*****
 36 41 0 0 0
SMALL
GASTEIGER

@<TRIPOS>ATOM
      1 C         138.9868  140.1625  164.8017 C.ar    1  UNL1        0.1188
      2 C         138.1868  139.3134  165.7447 C.ar    1  UNL1        0.0223
      3 C         138.5419  139.2720  167.2015 C.ar    1  UNL1        0.0032
      4 C         139.6968  140.0796  167.7153 C.ar    1  UNL1        0.0190
      5 C         140.0517  140.0382  169.1720 C.ar    1  UNL1        0.0024
      6 C         141.2066  140.8457  169.6859 C.ar    1  UNL1        0.0127
      7 C         142.0065  141.6948  168.7429 C.ar    1  UNL1        0.0722
      8 CL        143.1614  142.5024  169.2567 Cl      1  UNL1       -0.0809
      9 C         141.6516  141.7363  167.2861 C.ar    1  UNL1        0.0732
     10 C         140.4967  140.9287  166.7723 C.ar    1  UNL1        0.0952
     11 N         140.1416  140.9701  165.3154 N.ar    1  UNL1       -0.2409
     12 C         142.5725  137.6442  158.2818 C.3     1  UNL1        0.1124
     13 N         141.2442  138.3405  158.3042 N.pl3   1  UNL1       -0.2987
     14 C         140.5102  138.5972  157.0215 C.3     1  UNL1        0.1387
     15 C         139.1818  139.2936  157.0439 C.3     1  UNL1        0.2269
     16 O         138.5874  139.7332  158.3489 O.3     1  UNL1       -0.4692
     17 C         139.3213  139.4765  159.6316 C.ar    1  UNL1        0.1907
     18 C         140.6497  138.7802  159.6093 C.ar    1  UNL1        0.1067
     19 C         141.3836  138.5235  160.8921 C.ar    1  UNL1        0.1382
     20 N         140.7892  138.9632  162.1972 N.ar    1  UNL1       -0.1592
     21 N         139.4608  139.6595  162.2195 N.ar    1  UNL1       -0.1869
     22 C         138.6318  140.2039  163.3448 C.ar    1  UNL1        0.2041
     23 N         137.3855  140.7971  162.7576 N.ar    1  UNL1       -0.1253
     24 N         137.4443  140.6193  161.2693 N.ar    1  UNL1       -0.1237
     25 C         138.7269  139.9162  160.9368 C.ar    1  UNL1        0.2218
     26 N         142.4515  142.5853  166.3430 N.pl3   1  UNL1       -0.3287
     27 H         142.1844  143.5175  166.1727 H       1  UNL1        0.1470
     28 C         143.6583  142.0140  165.6595 C.3     1  UNL1        0.1202
     29 C         143.9913  142.4270  164.2564 C.3     1  UNL1        0.1543
     30 F         144.3036  140.9620  164.1778 F       1  UNL1       -0.2382
     31 C         143.5633  143.7486  164.8223 C.3     1  UNL1        0.0514
     32 C         143.5768  144.9743  163.9578 C.3     1  UNL1        0.0714
     33 N         144.0183  144.8785  162.5274 N.3     1  UNL1       -0.2973
     34 C         144.4463  143.5569  161.9615 C.3     1  UNL1        0.0714
     35 C         144.4328  142.3311  162.8260 C.3     1  UNL1        0.0514
     36 H         144.8084  145.5145  162.4199 H       1  UNL1        0.1233
@<TRIPOS>BOND
     1    12    13    1
     2    13    14    1
     3    14    15    1
     4    15    16    1
     5    16    17    1
     6    17    18   ar
     7    18    19   ar
     8    19    20   ar
     9    20    21   ar
    10    21    22   ar
    11    22     1    1
    12     1     2   ar
    13     2     3   ar
    14     3     4   ar
    15     4     5   ar
    16     5     6   ar
    17     6     7   ar
    18     7     8    1
    19     7     9   ar
    20     9    26    1
    21    26    28    1
    22    28    29    1
    23    29    30    1
    24    29    31    1
    25    31    32    1
    26    32    33    1
    27    33    34    1
    28    34    35    1
    29     9    10   ar
    30    10    11   ar
    31    22    23   ar
    32    23    24   ar
    33    24    25   ar
    34    18    13    1
    35    25    21   ar
    36    25    17   ar
    37    11     1   ar
    38    10     4   ar
    39    35    29    1
    40    26    27    1
    41    33    36    1
@<TRIPOS>MOLECULE
*****
 36 41 0 0 0
SMALL
GASTEIGER

@<TRIPOS>ATOM
      1 C         138.9317  139.5457  163.7436 C.ar    1  UNL1        0.1188
      2 C         137.8615  140.2778  162.9895 C.ar    1  UNL1        0.0223
      3 C         137.9206  140.3589  161.4929 C.ar    1  UNL1        0.0032
      4 C         139.0496  139.7079  160.7504 C.ar    1  UNL1        0.0190
      5 C         139.1085  139.7890  159.2537 C.ar    1  UNL1        0.0024
      6 C         140.2376  139.1379  158.5112 C.ar    1  UNL1        0.0127
      7 C         141.3078  138.4058  159.2654 C.ar    1  UNL1        0.0722
      8 CL        142.4368  137.7547  158.5229 Cl      1  UNL1       -0.0809
      9 C         141.2488  138.3246  160.7620 C.ar    1  UNL1        0.0732
     10 C         140.1198  138.9757  161.5045 C.ar    1  UNL1        0.0952
     11 N         140.0607  138.8946  163.0012 N.ar    1  UNL1       -0.2409
     12 C         143.4942  142.3300  169.5003 C.3     1  UNL1        0.1124
     13 N         142.2511  141.5199  169.7200 N.pl3   1  UNL1       -0.2987
     14 C         141.8061  141.1922  171.1145 C.3     1  UNL1        0.1387
     15 C         140.5629  140.3822  171.3342 C.3     1  UNL1        0.2269
     16 O         139.7647  139.8998  170.1594 O.3     1  UNL1       -0.4692
     17 C         140.2096  140.2275  168.7650 C.ar    1  UNL1        0.1907
     18 C         141.4528  141.0376  168.5453 C.ar    1  UNL1        0.1067
     19 C         141.8977  141.3653  167.1507 C.ar    1  UNL1        0.1382
     20 N         141.0994  140.8830  165.9759 N.ar    1  UNL1       -0.1592
     21 N         139.8562  140.0729  166.1957 N.ar    1  UNL1       -0.1869
     22 C         138.8728  139.4646  165.2403 C.ar    1  UNL1        0.2041
     23 N         137.8200  138.7609  166.0444 N.ar    1  UNL1       -0.1253
     24 N         138.1529  138.9343  167.4967 N.ar    1  UNL1       -0.1237
     25 C         139.4113  139.7452  167.5901 C.ar    1  UNL1        0.2218
     26 N         142.3190  137.5925  161.5162 N.pl3   1  UNL1       -0.3287
     27 H         142.0916  136.7894  162.0384 H       1  UNL1        0.1470
     28 C         143.7356  138.0839  161.4749 C.3     1  UNL1        0.1202
     29 C         144.0724  139.4465  162.0041 C.3     1  UNL1        0.1543
     30 F         144.2252  139.6935  160.5326 F       1  UNL1       -0.2382
     31 C         143.8026  138.7262  163.2919 C.3     1  UNL1        0.0514
     32 C         143.9228  139.4543  164.5979 C.3     1  UNL1        0.0714
     33 N         144.3128  140.9026  164.6159 N.3     1  UNL1       -0.2973
     34 C         144.5826  141.6229  163.3282 C.3     1  UNL1        0.0714
     35 C         144.4624  140.8948  162.0222 C.3     1  UNL1        0.0514
     36 H         145.1627  140.9717  165.1756 H       1  UNL1        0.1233
@<TRIPOS>BOND
     1    12    13    1
     2    13    14    1
     3    14    15    1
     4    15    16    1
     5    16    17    1
     6    17    18   ar
     7    18    19   ar
     8    19    20   ar
     9    20    21   ar
    10    21    22   ar
    11    22     1    1
    12     1     2   ar
    13     2     3   ar
    14     3     4   ar
    15     4     5   ar
    16     5     6   ar
    17     6     7   ar
    18     7     8    1
    19     7     9   ar
    20     9    26    1
    21    26    28    1
    22    28    29    1
    23    29    30    1
    24    29    31    1
    25    31    32    1
    26    32    33    1
    27    33    34    1
    28    34    35    1
    29     9    10   ar
    30    10    11   ar
    31    22    23   ar
    32    23    24   ar
    33    24    25   ar
    34    18    13    1
    35    25    21   ar
    36    25    17   ar
    37    11     1   ar
    38    10     4   ar
    39    35    29    1
    40    26    27    1
    41    33    36    1
@<TRIPOS>MOLECULE
*****
 36 41 0 0 0
SMALL
GASTEIGER

@<TRIPOS>ATOM
      1 C         141.5686  144.2905  163.0847 C.ar    1  UNL1        0.1188
      2 C         143.0181  144.4781  163.4221 C.ar    1  UNL1        0.0223
      3 C         143.6092  143.7747  164.6078 C.ar    1  UNL1        0.0032
      4 C         142.7509  142.8837  165.4560 C.ar    1  UNL1        0.0190
      5 C         143.3420  142.1803  166.6416 C.ar    1  UNL1        0.0024
      6 C         142.4837  141.2893  167.4898 C.ar    1  UNL1        0.0127
      7 C         141.0343  141.1017  167.1524 C.ar    1  UNL1        0.0722
      8 CL        140.1760  140.2107  168.0006 Cl      1  UNL1       -0.0809
      9 C         140.4431  141.8051  165.9667 C.ar    1  UNL1        0.0732
     10 C         141.3014  142.6961  165.1185 C.ar    1  UNL1        0.0952
     11 N         140.7103  143.3996  163.9328 N.ar    1  UNL1       -0.2409
     12 C         142.9648  143.9889  155.3602 C.3     1  UNL1        0.1124
     13 N         141.9320  144.8673  156.0018 N.pl3   1  UNL1       -0.2987
     14 C         141.0823  145.7676  155.1547 C.3     1  UNL1        0.1387
     15 C         140.0495  146.6461  155.7963 C.3     1  UNL1        0.2269
     16 O         139.8663  146.6242  157.2849 O.3     1  UNL1       -0.4692
     17 C         140.7160  145.7240  158.1319 C.ar    1  UNL1        0.1907
     18 C         141.7488  144.8455  157.4903 C.ar    1  UNL1        0.1067
     19 C         142.5985  143.9452  158.3375 C.ar    1  UNL1        0.1382
     20 N         142.4154  143.9234  159.8260 N.ar    1  UNL1       -0.1592
     21 N         141.3825  144.8018  160.4676 N.ar    1  UNL1       -0.1869
     22 C         140.9774  144.9940  161.8990 C.ar    1  UNL1        0.2041
     23 N         139.8774  146.0130  161.9366 N.ar    1  UNL1       -0.1253
     24 N         139.6026  146.4506  160.5284 N.ar    1  UNL1       -0.1237
     25 C         140.5329  145.7021  159.6206 C.ar    1  UNL1        0.2218
     26 N         138.9936  141.6176  165.6292 N.pl3   1  UNL1       -0.3287
     27 H         138.3711  142.3777  165.6922 H       1  UNL1        0.1470
     28 C         138.4926  140.2718  165.1958 C.3     1  UNL1        0.1202
     29 C         138.1888  140.0148  163.7495 C.3     1  UNL1        0.1543
     30 F         137.7104  141.4315  163.8684 F       1  UNL1       -0.2382
     31 C         138.7727  138.6874  164.1330 C.3     1  UNL1        0.0514
     32 C         138.8866  137.5949  163.1114 C.3     1  UNL1        0.0714
     33 N         138.4167  137.8300  161.7064 N.3     1  UNL1       -0.2973
     34 C         137.8328  139.1574  161.3229 C.3     1  UNL1        0.0714
     35 C         137.7189  140.2498  162.3445 C.3     1  UNL1        0.0514
     36 H         137.7029  137.1275  161.5133 H       1  UNL1        0.1233
@<TRIPOS>BOND
     1    12    13    1
     2    13    14    1
     3    14    15    1
     4    15    16    1
     5    16    17    1
     6    17    18   ar
     7    18    19   ar
     8    19    20   ar
     9    20    21   ar
    10    21    22   ar
    11    22     1    1
    12     1     2   ar
    13     2     3   ar
    14     3     4   ar
    15     4     5   ar
    16     5     6   ar
    17     6     7   ar
    18     7     8    1
    19     7     9   ar
    20     9    26    1
    21    26    28    1
    22    28    29    1
    23    29    30    1
    24    29    31    1
    25    31    32    1
    26    32    33    1
    27    33    34    1
    28    34    35    1
    29     9    10   ar
    30    10    11   ar
    31    22    23   ar
    32    23    24   ar
    33    24    25   ar
    34    18    13    1
    35    25    21   ar
    36    25    17   ar
    37    11     1   ar
    38    10     4   ar
    39    35    29    1
    40    26    27    1
    41    33    36    1
@<TRIPOS>MOLECULE
*****
 36 41 0 0 0
SMALL
GASTEIGER

@<TRIPOS>ATOM
      1 C         142.4346  143.3817  161.6987 C.ar    1  UNL1        0.1188
      2 C         143.9183  143.6016  161.7172 C.ar    1  UNL1        0.0223
      3 C         144.8044  142.6731  162.4935 C.ar    1  UNL1        0.0032
      4 C         144.2068  141.5247  163.2513 C.ar    1  UNL1        0.0190
      5 C         145.0930  140.5963  164.0276 C.ar    1  UNL1        0.0024
      6 C         144.4954  139.4479  164.7854 C.ar    1  UNL1        0.0127
      7 C         143.0117  139.2281  164.7669 C.ar    1  UNL1        0.0722
      8 CL        142.4142  138.0797  165.5247 Cl      1  UNL1       -0.0809
      9 C         142.1256  140.1565  163.9906 C.ar    1  UNL1        0.0732
     10 C         142.7231  141.3049  163.2328 C.ar    1  UNL1        0.0952
     11 N         141.8370  142.2334  162.4564 N.ar    1  UNL1       -0.2409
     12 C         142.0820  145.4657  154.1329 C.3     1  UNL1        0.1124
     13 N         141.1642  145.9854  155.1995 N.pl3   1  UNL1       -0.2987
     14 C         140.0897  146.9716  154.8491 C.3     1  UNL1        0.1387
     15 C         139.1719  147.4913  155.9157 C.3     1  UNL1        0.2269
     16 O         139.3286  147.0248  157.3326 O.3     1  UNL1       -0.4692
     17 C         140.4031  146.0386  157.6830 C.ar    1  UNL1        0.1907
     18 C         141.3209  145.5189  156.6164 C.ar    1  UNL1        0.1067
     19 C         142.3954  144.5326  156.9669 C.ar    1  UNL1        0.1382
     20 N         142.5521  144.0661  158.3838 N.ar    1  UNL1       -0.1592
     21 N         141.6343  144.5858  159.4504 N.ar    1  UNL1       -0.1869
     22 C         141.5484  144.3102  160.9223 C.ar    1  UNL1        0.2041
     23 N         140.4209  145.1261  161.4816 N.ar    1  UNL1       -0.1253
     24 N         139.8098  145.9060  160.3553 N.ar    1  UNL1       -0.1237
     25 C         140.5598  145.5720  159.1000 C.ar    1  UNL1        0.2218
     26 N         140.6419  139.9367  163.9720 N.pl3   1  UNL1       -0.3287
     27 H         140.2341  139.3896  163.2623 H       1  UNL1        0.1470
     28 C         139.7795  140.5505  165.0348 C.3     1  UNL1        0.1202
     29 C         139.5307  142.0297  165.0372 C.3     1  UNL1        0.1543
     30 F         140.4682  141.9213  166.2031 F       1  UNL1       -0.2382
     31 C         138.6796  141.6244  163.8705 C.3     1  UNL1        0.0514
     32 C         137.9054  142.6607  163.1111 C.3     1  UNL1        0.0714
     33 N         137.9823  144.1022  163.5184 N.3     1  UNL1       -0.2973
     34 C         138.8334  144.5076  164.6852 C.3     1  UNL1        0.0714
     35 C         139.6076  143.4713  165.4446 C.3     1  UNL1        0.0514
     36 H         137.0300  144.3992  163.7314 H       1  UNL1        0.1233
@<TRIPOS>BOND
     1    12    13    1
     2    13    14    1
     3    14    15    1
     4    15    16    1
     5    16    17    1
     6    17    18   ar
     7    18    19   ar
     8    19    20   ar
     9    20    21   ar
    10    21    22   ar
    11    22     1    1
    12     1     2   ar
    13     2     3   ar
    14     3     4   ar
    15     4     5   ar
    16     5     6   ar
    17     6     7   ar
    18     7     8    1
    19     7     9   ar
    20     9    26    1
    21    26    28    1
    22    28    29    1
    23    29    30    1
    24    29    31    1
    25    31    32    1
    26    32    33    1
    27    33    34    1
    28    34    35    1
    29     9    10   ar
    30    10    11   ar
    31    22    23   ar
    32    23    24   ar
    33    24    25   ar
    34    18    13    1
    35    25    21   ar
    36    25    17   ar
    37    11     1   ar
    38    10     4   ar
    39    35    29    1
    40    26    27    1
    41    33    36    1
@<TRIPOS>MOLECULE
*****
 36 41 0 0 0
SMALL
GASTEIGER

@<TRIPOS>ATOM
      1 C         143.1108  139.4427  163.6649 C.ar    1  UNL1        0.1188
      2 C         144.2439  140.1588  162.9916 C.ar    1  UNL1        0.0223
      3 C         144.2471  140.3228  161.5006 C.ar    1  UNL1        0.0032
      4 C         143.1173  139.7707  160.6829 C.ar    1  UNL1        0.0190
      5 C         143.1206  139.9348  159.1919 C.ar    1  UNL1        0.0024
      6 C         141.9908  139.3827  158.3742 C.ar    1  UNL1        0.0127
      7 C         140.8576  138.6666  159.0475 C.ar    1  UNL1        0.0722
      8 CL        139.7278  138.1145  158.2297 Cl      1  UNL1       -0.0809
      9 C         140.8544  138.5025  160.5384 C.ar    1  UNL1        0.0732
     10 C         141.9842  139.0546  161.3562 C.ar    1  UNL1        0.0952
     11 N         141.9810  138.8906  162.8472 N.ar    1  UNL1       -0.2409
     12 C         140.3195  143.7884  169.5835 C.3     1  UNL1        0.1124
     13 N         141.0353  142.4815  169.7551 N.pl3   1  UNL1       -0.2987
     14 C         141.2586  141.9233  171.1293 C.3     1  UNL1        0.1387
     15 C         141.9744  140.6164  171.3009 C.3     1  UNL1        0.2269
     16 O         142.4670  139.8675  170.0981 O.3     1  UNL1       -0.4692
     17 C         142.2437  140.4257  168.7239 C.ar    1  UNL1        0.1907
     18 C         141.5279  141.7326  168.5524 C.ar    1  UNL1        0.1067
     19 C         141.3046  142.2908  167.1780 C.ar    1  UNL1        0.1382
     20 N         141.7972  141.5419  165.9753 N.ar    1  UNL1       -0.1592
     21 N         142.5130  140.2350  166.1468 N.ar    1  UNL1       -0.1869
     22 C         143.1076  139.2786  165.1560 C.ar    1  UNL1        0.2041
     23 N         143.6983  138.1294  165.9178 N.ar    1  UNL1       -0.1253
     24 N         143.4688  138.3756  167.3796 N.ar    1  UNL1       -0.1237
     25 C         142.7363  139.6768  167.5211 C.ar    1  UNL1        0.2218
     26 N         139.7213  137.7864  161.2118 N.pl3   1  UNL1       -0.3287
     27 H         139.7651  136.8121  161.3461 H       1  UNL1        0.1470
     28 C         138.5214  138.5549  161.6806 C.3     1  UNL1        0.1202
     29 C         138.4712  139.0851  163.0828 C.3     1  UNL1        0.1543
     30 F         139.0812  137.7383  163.3353 F       1  UNL1       -0.2382
     31 C         137.8786  140.2478  162.3432 C.3     1  UNL1        0.0514
     32 C         137.4477  141.4731  163.0937 C.3     1  UNL1        0.0714
     33 N         137.6094  141.5355  164.5837 N.3     1  UNL1       -0.2973
     34 C         138.2020  140.3728  165.3232 C.3     1  UNL1        0.0714
     35 C         138.6329  139.1476  164.5727 C.3     1  UNL1        0.0514
     36 H         136.6800  141.6903  164.9744 H       1  UNL1        0.1233
@<TRIPOS>BOND
     1    12    13    1
     2    13    14    1
     3    14    15    1
     4    15    16    1
     5    16    17    1
     6    17    18   ar
     7    18    19   ar
     8    19    20   ar
     9    20    21   ar
    10    21    22   ar
    11    22     1    1
    12     1     2   ar
    13     2     3   ar
    14     3     4   ar
    15     4     5   ar
    16     5     6   ar
    17     6     7   ar
    18     7     8    1
    19     7     9   ar
    20     9    26    1
    21    26    28    1
    22    28    29    1
    23    29    30    1
    24    29    31    1
    25    31    32    1
    26    32    33    1
    27    33    34    1
    28    34    35    1
    29     9    10   ar
    30    10    11   ar
    31    22    23   ar
    32    23    24   ar
    33    24    25   ar
    34    18    13    1
    35    25    21   ar
    36    25    17   ar
    37    11     1   ar
    38    10     4   ar
    39    35    29    1
    40    26    27    1
    41    33    36    1
@<TRIPOS>MOLECULE
*****
 36 41 0 0 0
SMALL
GASTEIGER

@<TRIPOS>ATOM
      1 C         141.1248  138.7108  162.7587 C.ar    1  UNL1        0.1188
      2 C         139.9502  137.7798  162.6994 C.ar    1  UNL1        0.0223
      3 C         138.9928  137.7061  163.8517 C.ar    1  UNL1        0.0032
      4 C         139.2100  138.5634  165.0633 C.ar    1  UNL1        0.0190
      5 C         138.2525  138.4896  166.2156 C.ar    1  UNL1        0.0024
      6 C         138.4697  139.3468  167.4272 C.ar    1  UNL1        0.0127
      7 C         139.6444  140.2778  167.4865 C.ar    1  UNL1        0.0722
      8 CL        139.8615  141.1350  168.6981 Cl      1  UNL1       -0.0809
      9 C         140.6018  140.3515  166.3342 C.ar    1  UNL1        0.0732
     10 C         140.3846  139.4943  165.1226 C.ar    1  UNL1        0.0952
     11 N         141.3421  139.5680  163.9702 N.ar    1  UNL1       -0.2409
     12 C         142.5700  144.1304  157.2588 C.3     1  UNL1        0.1124
     13 N         143.2874  142.8173  157.3648 N.pl3   1  UNL1       -0.2987
     14 C         144.3617  142.4677  156.3781 C.3     1  UNL1        0.1387
     15 C         145.0790  141.1547  156.4842 C.3     1  UNL1        0.2269
     16 O         144.7221  140.1911  157.5769 O.3     1  UNL1       -0.4692
     17 C         143.6477  140.5406  158.5636 C.ar    1  UNL1        0.1907
     18 C         142.9304  141.8537  158.4576 C.ar    1  UNL1        0.1067
     19 C         141.8561  142.2032  159.4444 C.ar    1  UNL1        0.1382
     20 N         141.4991  141.2397  160.5371 N.ar    1  UNL1       -0.1592
     21 N         142.2164  139.9266  160.6431 N.ar    1  UNL1       -0.1869
     22 C         142.0823  138.7845  161.6063 C.ar    1  UNL1        0.2041
     23 N         143.0738  137.7292  161.2148 N.ar    1  UNL1       -0.1253
     24 N         143.8206  138.2190  160.0097 N.ar    1  UNL1       -0.1237
     25 C         143.2907  139.5771  159.6564 C.ar    1  UNL1        0.2218
     26 N         141.7765  141.2825  166.3934 N.pl3   1  UNL1       -0.3287
     27 H         142.6045  141.0021  166.8463 H       1  UNL1        0.1470
     28 C         141.6896  142.6406  165.7626 C.3     1  UNL1        0.1202
     29 C         142.7138  143.0653  164.7524 C.3     1  UNL1        0.1543
     30 F         143.4551  141.9449  165.4196 F       1  UNL1       -0.2382
     31 C         141.6169  144.0382  164.4360 C.3     1  UNL1        0.0514
     32 C         141.8016  145.0466  163.3410 C.3     1  UNL1        0.0714
     33 N         143.0833  145.0822  162.5625 N.3     1  UNL1       -0.2973
     34 C         144.1803  144.1093  162.8789 C.3     1  UNL1        0.0714
     35 C         143.9955  143.1008  163.9739 C.3     1  UNL1        0.0514
     36 H         143.4747  146.0164  162.6823 H       1  UNL1        0.1233
@<TRIPOS>BOND
     1    12    13    1
     2    13    14    1
     3    14    15    1
     4    15    16    1
     5    16    17    1
     6    17    18   ar
     7    18    19   ar
     8    19    20   ar
     9    20    21   ar
    10    21    22   ar
    11    22     1    1
    12     1     2   ar
    13     2     3   ar
    14     3     4   ar
    15     4     5   ar
    16     5     6   ar
    17     6     7   ar
    18     7     8    1
    19     7     9   ar
    20     9    26    1
    21    26    28    1
    22    28    29    1
    23    29    30    1
    24    29    31    1
    25    31    32    1
    26    32    33    1
    27    33    34    1
    28    34    35    1
    29     9    10   ar
    30    10    11   ar
    31    22    23   ar
    32    23    24   ar
    33    24    25   ar
    34    18    13    1
    35    25    21   ar
    36    25    17   ar
    37    11     1   ar
    38    10     4   ar
    39    35    29    1
    40    26    27    1
    41    33    36    1
@<TRIPOS>MOLECULE
*****
 36 41 0 0 0
SMALL
GASTEIGER

@<TRIPOS>ATOM
      1 C         140.9201  138.3982  163.3156 C.ar    1  UNL1        0.1188
      2 C         139.7184  137.5213  163.5079 C.ar    1  UNL1        0.0223
      3 C         138.8745  137.6652  164.7396 C.ar    1  UNL1        0.0032
      4 C         139.2322  138.6859  165.7789 C.ar    1  UNL1        0.0190
      5 C         138.3882  138.8296  167.0105 C.ar    1  UNL1        0.0024
      6 C         138.7459  139.8503  168.0499 C.ar    1  UNL1        0.0127
      7 C         139.9476  140.7272  167.8576 C.ar    1  UNL1        0.0722
      8 CL        140.3053  141.7479  168.8969 Cl      1  UNL1       -0.0809
      9 C         140.7916  140.5835  166.6259 C.ar    1  UNL1        0.0732
     10 C         140.4339  139.5628  165.5866 C.ar    1  UNL1        0.0952
     11 N         141.2778  139.4189  164.3548 N.ar    1  UNL1       -0.2409
     12 C         139.3373  138.5284  155.6223 C.3     1  UNL1        0.1124
     13 N         140.7060  138.3312  156.2034 N.pl3   1  UNL1       -0.2987
     14 C         141.8856  138.1415  155.2966 C.3     1  UNL1        0.1387
     15 C         143.2544  137.9443  155.8777 C.3     1  UNL1        0.2269
     16 O         143.4435  137.9367  157.3657 O.3     1  UNL1       -0.4692
     17 C         142.2638  138.1263  158.2725 C.ar    1  UNL1        0.1907
     18 C         140.8951  138.3235  157.6914 C.ar    1  UNL1        0.1067
     19 C         139.7154  138.5132  158.5984 C.ar    1  UNL1        0.1382
     20 N         139.9045  138.5055  160.0864 N.ar    1  UNL1       -0.1592
     21 N         141.2733  138.3083  160.6675 N.ar    1  UNL1       -0.1869
     22 C         141.7641  138.2544  162.0838 C.ar    1  UNL1        0.2041
     23 N         143.2471  138.0315  162.0523 N.ar    1  UNL1       -0.1253
     24 N         143.6728  137.9476  160.6164 N.ar    1  UNL1       -0.1237
     25 C         142.4529  138.1187  159.7606 C.ar    1  UNL1        0.2218
     26 N         141.9933  141.4603  166.4335 N.pl3   1  UNL1       -0.3287
     27 H         142.8752  141.1645  166.7558 H       1  UNL1        0.1470
     28 C         141.8512  142.7880  165.7500 C.3     1  UNL1        0.1202
     29 C         142.8470  143.2060  164.7090 C.3     1  UNL1        0.1543
     30 F         143.6601  142.1892  165.4539 F       1  UNL1       -0.2382
     31 C         141.6879  144.0776  164.3257 C.3     1  UNL1        0.0514
     32 C         141.8071  145.0142  163.1601 C.3     1  UNL1        0.0714
     33 N         143.0853  145.0791  162.3778 N.3     1  UNL1       -0.2973
     34 C         144.2444  144.2075  162.7611 C.3     1  UNL1        0.0714
     35 C         144.1252  143.2709  163.9268 C.3     1  UNL1        0.0514
     36 H         143.4129  146.0437  162.4285 H       1  UNL1        0.1233
@<TRIPOS>BOND
     1    12    13    1
     2    13    14    1
     3    14    15    1
     4    15    16    1
     5    16    17    1
     6    17    18   ar
     7    18    19   ar
     8    19    20   ar
     9    20    21   ar
    10    21    22   ar
    11    22     1    1
    12     1     2   ar
    13     2     3   ar
    14     3     4   ar
    15     4     5   ar
    16     5     6   ar
    17     6     7   ar
    18     7     8    1
    19     7     9   ar
    20     9    26    1
    21    26    28    1
    22    28    29    1
    23    29    30    1
    24    29    31    1
    25    31    32    1
    26    32    33    1
    27    33    34    1
    28    34    35    1
    29     9    10   ar
    30    10    11   ar
    31    22    23   ar
    32    23    24   ar
    33    24    25   ar
    34    18    13    1
    35    25    21   ar
    36    25    17   ar
    37    11     1   ar
    38    10     4   ar
    39    35    29    1
    40    26    27    1
    41    33    36    1
@<TRIPOS>MOLECULE
*****
 36 41 0 0 0
SMALL
GASTEIGER

@<TRIPOS>ATOM
      1 C         139.1820  140.5293  160.5742 C.ar    1  UNL1        0.1188
      2 C         139.7353  139.1821  160.2149 C.ar    1  UNL1        0.0223
      3 C         139.8209  138.1048  161.2551 C.ar    1  UNL1        0.0032
      4 C         139.3534  138.3747  162.6546 C.ar    1  UNL1        0.0190
      5 C         139.4391  137.2973  163.6948 C.ar    1  UNL1        0.0024
      6 C         138.9715  137.5671  165.0942 C.ar    1  UNL1        0.0127
      7 C         138.4183  138.9143  165.4536 C.ar    1  UNL1        0.0722
      8 CL        137.9507  139.1841  166.8530 Cl      1  UNL1       -0.0809
      9 C         138.3326  139.9916  164.4134 C.ar    1  UNL1        0.0732
     10 C         138.8001  139.7218  163.0139 C.ar    1  UNL1        0.0952
     11 N         138.7145  140.7991  161.9736 N.ar    1  UNL1       -0.2409
     12 C         135.1707  141.2658  153.8604 C.3     1  UNL1        0.1124
     13 N         136.1072  142.3023  154.4070 N.pl3   1  UNL1       -0.2987
     14 C         136.3272  143.5836  153.6587 C.3     1  UNL1        0.1387
     15 C         137.2636  144.6200  154.2053 C.3     1  UNL1        0.2269
     16 O         137.9801  144.3752  155.5001 O.3     1  UNL1       -0.4692
     17 C         137.7601  143.0940  156.2484 C.ar    1  UNL1        0.1907
     18 C         136.8237  142.0575  155.7018 C.ar    1  UNL1        0.1067
     19 C         136.6037  140.7762  156.4502 C.ar    1  UNL1        0.1382
     20 N         137.3202  140.5314  157.7450 N.ar    1  UNL1       -0.1592
     21 N         138.2567  141.5679  158.2916 N.ar    1  UNL1       -0.1869
     22 C         139.0963  141.6066  159.5339 C.ar    1  UNL1        0.2041
     23 N         139.8352  142.9119  159.5535 N.ar    1  UNL1       -0.1253
     24 N         139.4523  143.6798  158.3231 N.ar    1  UNL1       -0.1237
     25 C         138.4767  142.8491  157.5433 C.ar    1  UNL1        0.2218
     26 N         137.7794  141.3389  164.7726 N.pl3   1  UNL1       -0.3287
     27 H         136.8063  141.4668  164.8499 H       1  UNL1        0.1470
     28 C         138.7088  142.4912  165.0141 C.3     1  UNL1        0.1202
     29 C         138.7974  143.6056  164.0139 C.3     1  UNL1        0.1543
     30 F         137.3852  143.1575  163.7802 F       1  UNL1       -0.2382
     31 C         140.1789  143.6666  164.5951 C.3     1  UNL1        0.0514
     32 C         141.1586  144.6865  164.0949 C.3     1  UNL1        0.0714
     33 N         140.7567  145.6452  163.0136 N.3     1  UNL1       -0.2973
     34 C         139.3752  145.5842  162.4324 C.3     1  UNL1        0.0714
     35 C         138.3956  144.5643  162.9326 C.3     1  UNL1        0.0514
     36 H         141.4077  145.5070  162.2406 H       1  UNL1        0.1233
@<TRIPOS>BOND
     1    12    13    1
     2    13    14    1
     3    14    15    1
     4    15    16    1
     5    16    17    1
     6    17    18   ar
     7    18    19   ar
     8    19    20   ar
     9    20    21   ar
    10    21    22   ar
    11    22     1    1
    12     1     2   ar
    13     2     3   ar
    14     3     4   ar
    15     4     5   ar
    16     5     6   ar
    17     6     7   ar
    18     7     8    1
    19     7     9   ar
    20     9    26    1
    21    26    28    1
    22    28    29    1
    23    29    30    1
    24    29    31    1
    25    31    32    1
    26    32    33    1
    27    33    34    1
    28    34    35    1
    29     9    10   ar
    30    10    11   ar
    31    22    23   ar
    32    23    24   ar
    33    24    25   ar
    34    18    13    1
    35    25    21   ar
    36    25    17   ar
    37    11     1   ar
    38    10     4   ar
    39    35    29    1
    40    26    27    1
    41    33    36    1
