@<TRIPOS>MOLECULE
*****
 39 44 0 0 0
SMALL
GASTEIGER

@<TRIPOS>ATOM
      1 C         141.0341  145.3699  159.2630 C.3     1  UNL1        0.0294
      2 C         140.4798  145.8070  160.5866 C.3     1  UNL1        0.0730
      3 C         143.9870  137.8540  166.7635 C.3     1  UNL1        0.0952
      4 C         143.3535  139.0338  166.0875 C.2     1  UNL1        0.2300
      5 O         143.7336  139.3847  164.6795 O.2     1  UNL1       -0.2745
      6 N         142.3400  139.8626  166.8195 N.am    1  UNL1       -0.2522
      7 C         141.9599  139.5118  168.2274 C.3     1  UNL1        0.1455
      8 C         140.9464  140.3406  168.9594 C.3     1  UNL1        0.2272
      9 O         140.3129  141.5204  168.2834 O.3     1  UNL1       -0.4724
     10 C         140.6930  141.8712  166.8755 C.ar    1  UNL1        0.1518
     11 C         140.0596  143.0510  166.1995 C.ar    1  UNL1        0.0337
     12 C         140.4397  143.4018  164.7914 C.ar    1  UNL1       -0.0216
     13 C         141.4532  142.5730  164.0596 C.ar    1  UNL1       -0.0233
     14 C         142.0867  141.3933  164.7355 C.ar    1  UNL1        0.0135
     15 C         141.7066  141.0424  166.1435 C.ar    1  UNL1        0.0878
     16 C         141.9708  142.7472  162.6624 C.3     1  UNL1        0.0434
     17 C         141.6026  143.7932  161.6523 C.3     1  UNL1        0.0768
     18 N         140.6261  144.9233  161.7898 N.3     1  UNL1       -0.2720
     19 C         139.7763  145.2867  162.9713 C.3     1  UNL1        0.0768
     20 C         139.6934  144.6096  164.3072 C.3     1  UNL1        0.0434
     21 C         140.1046  145.0307  158.1357 C.3     1  UNL1        0.0666
     22 S         139.7558  143.5989  157.8563 S.3     1  UNL1       -0.0756
     23 C         139.4312  142.6712  158.9894 C.ar    1  UNL1        0.1932
     24 N         138.1624  142.6668  159.7895 N.ar    1  UNL1       -0.1221
     25 N         138.2654  141.5779  160.8160 N.ar    1  UNL1       -0.1282
     26 C         139.5979  140.9092  160.6502 C.ar    1  UNL1        0.1669
     27 N         140.3184  141.5849  159.5213 N.ar    1  UNL1       -0.2884
     28 C         141.6860  141.2356  159.0136 C.3     1  UNL1        0.1340
     29 C         140.1185  139.7657  161.4695 C.ar    1  UNL1        0.0374
     30 C         141.1558  138.8449  160.8984 C.ar    1  UNL1        0.0031
     31 C         141.6764  137.7014  161.7177 C.ar    1  UNL1        0.0016
     32 C         141.1597  137.4785  163.1081 C.ar    1  UNL1        0.0191
     33 C         140.1224  138.3992  163.6792 C.ar    1  UNL1        0.0810
     34 N         139.6057  138.1764  165.0696 N.ar    1  UNL1       -0.2497
     35 C         138.5683  139.0971  165.6409 C.ar    1  UNL1        0.0593
     36 C         138.0516  138.8743  167.0313 C.3     1  UNL1        0.0521
     37 C         138.0477  140.2407  164.8215 C.ar    1  UNL1        0.0147
     38 C         138.5645  140.4635  163.4311 C.ar    1  UNL1        0.0028
     39 C         139.6018  139.5428  162.8599 C.ar    1  UNL1        0.0206
@<TRIPOS>BOND
     1     3     4    1
     2     4     5    2
     3     4     6   am
     4     6     7    1
     5     7     8    1
     6     8     9    1
     7     9    10    1
     8    10    11   ar
     9    11    12   ar
    10    12    13   ar
    11    13    14   ar
    12    14    15   ar
    13    13    16    1
    14    16    17    1
    15    17    18    1
    16    18     2    1
    17     2     1    1
    18     1    21    1
    19    21    22    1
    20    22    23    1
    21    23    24   ar
    22    24    25   ar
    23    25    26   ar
    24    26    29    1
    25    29    30   ar
    26    30    31   ar
    27    31    32   ar
    28    32    33   ar
    29    33    34   ar
    30    34    35   ar
    31    35    36    1
    32    35    37   ar
    33    37    38   ar
    34    38    39   ar
    35    26    27   ar
    36    27    28    1
    37    18    19    1
    38    19    20    1
    39    15     6    1
    40    27    23   ar
    41    15    10   ar
    42    39    29   ar
    43    20    12    1
    44    39    33   ar
@<TRIPOS>MOLECULE
*****
 39 44 0 0 0
SMALL
GASTEIGER

@<TRIPOS>ATOM
      1 C         139.7728  140.3772  168.4470 C.3     1  UNL1        0.0294
      2 C         138.8327  139.5457  167.6254 C.3     1  UNL1        0.0730
      3 C         139.0175  143.2861  157.6414 C.3     1  UNL1        0.0952
      4 C         139.0303  142.5400  158.9426 C.2     1  UNL1        0.2300
      5 O         138.8322  143.2789  160.2329 O.2     1  UNL1       -0.2745
      6 N         139.2412  141.0549  158.9535 N.am    1  UNL1       -0.2522
      7 C         139.4393  140.3160  157.6633 C.3     1  UNL1        0.1455
      8 C         139.6502  138.8309  157.6743 C.3     1  UNL1        0.2272
      9 O         139.6630  138.0848  158.9755 O.3     1  UNL1       -0.4724
     10 C         139.4649  138.8237  160.2657 C.ar    1  UNL1        0.1518
     11 C         139.4777  138.0775  161.5669 C.ar    1  UNL1        0.0337
     12 C         139.2796  138.8165  162.8572 C.ar    1  UNL1       -0.0216
     13 C         139.0687  140.3015  162.8462 C.ar    1  UNL1       -0.0233
     14 C         139.0559  141.0477  161.5451 C.ar    1  UNL1        0.0135
     15 C         139.2540  140.3088  160.2547 C.ar    1  UNL1        0.0878
     16 C         138.8535  141.2242  164.0091 C.3     1  UNL1        0.0434
     17 C         138.7961  140.8896  165.4703 C.3     1  UNL1        0.0768
     18 N         138.9397  139.5499  166.1292 N.3     1  UNL1       -0.2720
     19 C         139.1762  138.2137  165.4899 C.3     1  UNL1        0.0768
     20 C         139.3274  137.8873  164.0337 C.3     1  UNL1        0.0434
     21 C         140.8286  139.7132  169.2804 C.3     1  UNL1        0.0666
     22 S         142.2547  139.7033  168.8156 S.3     1  UNL1       -0.0756
     23 C         142.7656  140.8080  167.9390 C.ar    1  UNL1        0.1932
     24 N         143.2514  142.1490  168.4034 N.ar    1  UNL1       -0.1221
     25 N         143.6664  142.9356  167.1955 N.ar    1  UNL1       -0.1282
     26 C         143.4371  142.0806  165.9845 C.ar    1  UNL1        0.1669
     27 N         142.8804  140.7657  166.4440 N.ar    1  UNL1       -0.2884
     28 C         142.5045  139.6113  165.5631 C.3     1  UNL1        0.1340
     29 C         143.7157  142.4719  164.5635 C.ar    1  UNL1        0.0374
     30 C         144.9377  141.9499  163.8676 C.ar    1  UNL1        0.0031
     31 C         145.2162  142.3412  162.4465 C.ar    1  UNL1        0.0016
     32 C         144.2728  143.2544  161.7213 C.ar    1  UNL1        0.0191
     33 C         143.0508  143.7764  162.4172 C.ar    1  UNL1        0.0810
     34 N         142.1073  144.6896  161.6921 N.ar    1  UNL1       -0.2497
     35 C         140.8853  145.2117  162.3879 C.ar    1  UNL1        0.0593
     36 C         139.9418  146.1249  161.6628 C.3     1  UNL1        0.0521
     37 C         140.6068  144.8204  163.8090 C.ar    1  UNL1        0.0147
     38 C         141.5503  143.9071  164.5342 C.ar    1  UNL1        0.0028
     39 C         142.7723  143.3851  163.8383 C.ar    1  UNL1        0.0206
@<TRIPOS>BOND
     1     3     4    1
     2     4     5    2
     3     4     6   am
     4     6     7    1
     5     7     8    1
     6     8     9    1
     7     9    10    1
     8    10    11   ar
     9    11    12   ar
    10    12    13   ar
    11    13    14   ar
    12    14    15   ar
    13    13    16    1
    14    16    17    1
    15    17    18    1
    16    18     2    1
    17     2     1    1
    18     1    21    1
    19    21    22    1
    20    22    23    1
    21    23    24   ar
    22    24    25   ar
    23    25    26   ar
    24    26    29    1
    25    29    30   ar
    26    30    31   ar
    27    31    32   ar
    28    32    33   ar
    29    33    34   ar
    30    34    35   ar
    31    35    36    1
    32    35    37   ar
    33    37    38   ar
    34    38    39   ar
    35    26    27   ar
    36    27    28    1
    37    18    19    1
    38    19    20    1
    39    15     6    1
    40    27    23   ar
    41    15    10   ar
    42    39    29   ar
    43    20    12    1
    44    39    33   ar
@<TRIPOS>MOLECULE
*****
 39 44 0 0 0
SMALL
GASTEIGER

@<TRIPOS>ATOM
      1 C         140.4449  145.1466  158.6755 C.3     1  UNL1        0.0294
      2 C         140.2365  145.6288  160.0806 C.3     1  UNL1        0.0730
      3 C         140.6609  140.9969  169.6759 C.3     1  UNL1        0.0952
      4 C         140.4474  141.4656  168.2670 C.2     1  UNL1        0.2300
      5 O         141.1400  142.7019  167.7749 O.2     1  UNL1       -0.2745
      6 N         139.5414  140.6981  167.3504 N.am    1  UNL1       -0.2522
      7 C         138.8490  139.4620  167.8426 C.3     1  UNL1        0.1455
      8 C         137.9430  138.6945  166.9260 C.3     1  UNL1        0.2272
      9 O         137.7295  139.1632  165.5171 O.3     1  UNL1       -0.4724
     10 C         138.4220  140.3994  165.0250 C.ar    1  UNL1        0.1518
     11 C         138.2085  140.8682  163.6162 C.ar    1  UNL1        0.0337
     12 C         138.9011  142.1044  163.1240 C.ar    1  UNL1       -0.0216
     13 C         139.8070  142.8718  164.0406 C.ar    1  UNL1       -0.0233
     14 C         140.0205  142.4031  165.4494 C.ar    1  UNL1        0.0135
     15 C         139.3280  141.1669  165.9416 C.ar    1  UNL1        0.0878
     16 C         140.5881  144.1200  163.7541 C.3     1  UNL1        0.0434
     17 C         140.6561  144.9089  162.4800 C.3     1  UNL1        0.0768
     18 N         139.9599  144.6445  161.1781 N.3     1  UNL1       -0.2720
     19 C         139.0236  143.5259  160.8284 C.3     1  UNL1        0.0768
     20 C         138.5524  142.3955  161.6944 C.3     1  UNL1        0.0434
     21 C         141.8229  145.1350  158.0831 C.3     1  UNL1        0.0666
     22 S         142.6743  143.9047  158.1889 S.3     1  UNL1       -0.0756
     23 C         142.6784  143.1021  159.4561 C.ar    1  UNL1        0.1932
     24 N         143.4831  143.4008  160.6863 N.ar    1  UNL1       -0.1221
     25 N         143.1806  142.3433  161.7062 N.ar    1  UNL1       -0.1282
     26 C         142.1890  141.3910  161.1063 C.ar    1  UNL1        0.1669
     27 N         141.8786  141.8600  159.7157 N.ar    1  UNL1       -0.2884
     28 C         140.9342  141.2023  158.7536 C.3     1  UNL1        0.1340
     29 C         141.6094  140.1820  161.7789 C.ar    1  UNL1        0.0374
     30 C         140.6917  139.2695  161.0205 C.ar    1  UNL1        0.0031
     31 C         140.1122  138.0604  161.6932 C.ar    1  UNL1        0.0016
     32 C         140.4503  137.7639  163.1241 C.ar    1  UNL1        0.0191
     33 C         141.3680  138.6764  163.8825 C.ar    1  UNL1        0.0810
     34 N         141.7062  138.3799  165.3134 N.ar    1  UNL1       -0.2497
     35 C         142.6239  139.2924  166.0719 C.ar    1  UNL1        0.0593
     36 C         142.9621  138.9960  167.5029 C.3     1  UNL1        0.0521
     37 C         143.2034  140.5015  165.3992 C.ar    1  UNL1        0.0147
     38 C         142.8652  140.7980  163.9682 C.ar    1  UNL1        0.0028
     39 C         141.9475  139.8854  163.2098 C.ar    1  UNL1        0.0206
@<TRIPOS>BOND
     1     3     4    1
     2     4     5    2
     3     4     6   am
     4     6     7    1
     5     7     8    1
     6     8     9    1
     7     9    10    1
     8    10    11   ar
     9    11    12   ar
    10    12    13   ar
    11    13    14   ar
    12    14    15   ar
    13    13    16    1
    14    16    17    1
    15    17    18    1
    16    18     2    1
    17     2     1    1
    18     1    21    1
    19    21    22    1
    20    22    23    1
    21    23    24   ar
    22    24    25   ar
    23    25    26   ar
    24    26    29    1
    25    29    30   ar
    26    30    31   ar
    27    31    32   ar
    28    32    33   ar
    29    33    34   ar
    30    34    35   ar
    31    35    36    1
    32    35    37   ar
    33    37    38   ar
    34    38    39   ar
    35    26    27   ar
    36    27    28    1
    37    18    19    1
    38    19    20    1
    39    15     6    1
    40    27    23   ar
    41    15    10   ar
    42    39    29   ar
    43    20    12    1
    44    39    33   ar
@<TRIPOS>MOLECULE
*****
 39 44 0 0 0
SMALL
GASTEIGER

@<TRIPOS>ATOM
      1 C         141.1675  144.6235  158.3018 C.3     1  UNL1        0.0294
      2 C         140.9815  145.3296  159.6122 C.3     1  UNL1        0.0730
      3 C         137.7238  138.4314  167.0625 C.3     1  UNL1        0.0952
      4 C         138.3698  139.4469  166.1671 C.2     1  UNL1        0.2300
      5 O         137.7447  139.7883  164.8469 O.2     1  UNL1       -0.2745
      6 N         139.6407  140.1208  166.5919 N.am    1  UNL1       -0.2522
      7 C         140.2657  139.7794  167.9119 C.3     1  UNL1        0.1455
      8 C         141.5367  140.4533  168.3367 C.3     1  UNL1        0.2272
      9 O         142.1827  141.4688  167.4413 O.3     1  UNL1       -0.4724
     10 C         141.5576  141.8102  166.1212 C.ar    1  UNL1        0.1518
     11 C         142.2036  142.8257  165.2259 C.ar    1  UNL1        0.0337
     12 C         141.5785  143.1671  163.9057 C.ar    1  UNL1       -0.0216
     13 C         140.3076  142.4932  163.4810 C.ar    1  UNL1       -0.0233
     14 C         139.6616  141.4777  164.3763 C.ar    1  UNL1        0.0135
     15 C         140.2866  141.1362  165.6965 C.ar    1  UNL1        0.0878
     16 C         139.5245  142.6854  162.2161 C.3     1  UNL1        0.0434
     17 C         139.8192  143.5992  161.0635 C.3     1  UNL1        0.0768
     18 N         140.9694  144.5462  160.8913 N.3     1  UNL1       -0.2720
     19 C         142.1093  144.8136  161.8289 C.3     1  UNL1        0.0768
     20 C         142.3804  144.1998  163.1705 C.3     1  UNL1        0.0434
     21 C         142.5420  144.4686  157.7217 C.3     1  UNL1        0.0666
     22 S         143.2434  143.1449  157.7977 S.3     1  UNL1       -0.0756
     23 C         143.2164  142.3539  159.0719 C.ar    1  UNL1        0.1932
     24 N         144.2396  142.4116  160.1672 N.ar    1  UNL1       -0.1221
     25 N         143.8172  141.4598  161.2468 N.ar    1  UNL1       -0.1282
     26 C         142.5328  140.8139  160.8188 C.ar    1  UNL1        0.1669
     27 N         142.1615  141.3665  159.4746 N.ar    1  UNL1       -0.2884
     28 C         140.9483  140.9966  158.6737 C.3     1  UNL1        0.1340
     29 C         141.7561  139.7943  161.5980 C.ar    1  UNL1        0.0374
     30 C         140.4712  139.2495  161.0482 C.ar    1  UNL1        0.0031
     31 C         139.6945  138.2300  161.8275 C.ar    1  UNL1        0.0016
     32 C         140.2026  137.7552  163.1565 C.ar    1  UNL1        0.0191
     33 C         141.4875  138.3001  163.7063 C.ar    1  UNL1        0.0810
     34 N         141.9956  137.8254  165.0354 N.ar    1  UNL1       -0.2497
     35 C         143.2805  138.3702  165.5853 C.ar    1  UNL1        0.0593
     36 C         143.7887  137.8955  166.9143 C.3     1  UNL1        0.0521
     37 C         144.0572  139.3897  164.8059 C.ar    1  UNL1        0.0147
     38 C         143.5490  139.8644  163.4769 C.ar    1  UNL1        0.0028
     39 C         142.2642  139.3196  162.9271 C.ar    1  UNL1        0.0206
@<TRIPOS>BOND
     1     3     4    1
     2     4     5    2
     3     4     6   am
     4     6     7    1
     5     7     8    1
     6     8     9    1
     7     9    10    1
     8    10    11   ar
     9    11    12   ar
    10    12    13   ar
    11    13    14   ar
    12    14    15   ar
    13    13    16    1
    14    16    17    1
    15    17    18    1
    16    18     2    1
    17     2     1    1
    18     1    21    1
    19    21    22    1
    20    22    23    1
    21    23    24   ar
    22    24    25   ar
    23    25    26   ar
    24    26    29    1
    25    29    30   ar
    26    30    31   ar
    27    31    32   ar
    28    32    33   ar
    29    33    34   ar
    30    34    35   ar
    31    35    36    1
    32    35    37   ar
    33    37    38   ar
    34    38    39   ar
    35    26    27   ar
    36    27    28    1
    37    18    19    1
    38    19    20    1
    39    15     6    1
    40    27    23   ar
    41    15    10   ar
    42    39    29   ar
    43    20    12    1
    44    39    33   ar
@<TRIPOS>MOLECULE
*****
 39 44 0 0 0
SMALL
GASTEIGER

@<TRIPOS>ATOM
      1 C         140.9218  142.4260  170.3967 C.3     1  UNL1        0.0294
      2 C         142.0755  142.7882  169.5090 C.3     1  UNL1        0.0730
      3 C         144.5350  142.3149  159.1440 C.3     1  UNL1        0.0952
      4 C         143.9593  142.4241  160.5249 C.2     1  UNL1        0.2300
      5 O         144.8473  142.2606  161.7228 O.2     1  UNL1       -0.2745
      6 N         142.4957  142.6968  160.7078 N.am    1  UNL1       -0.2522
      7 C         141.6078  142.8602  159.5100 C.3     1  UNL1        0.1455
      8 C         140.1442  143.1329  159.6929 C.3     1  UNL1        0.2272
      9 O         139.5684  143.2421  161.0737 O.3     1  UNL1       -0.4724
     10 C         140.4564  143.0787  162.2715 C.ar    1  UNL1        0.1518
     11 C         139.8806  143.1879  163.6523 C.ar    1  UNL1        0.0337
     12 C         140.7686  143.0244  164.8502 C.ar    1  UNL1       -0.0216
     13 C         142.2321  142.7518  164.6673 C.ar    1  UNL1       -0.0233
     14 C         142.8079  142.6425  163.2865 C.ar    1  UNL1        0.0135
     15 C         141.9200  142.8060  162.0886 C.ar    1  UNL1        0.0878
     16 C         143.2857  142.5573  165.7172 C.3     1  UNL1        0.0434
     17 C         143.1356  142.5874  167.2095 C.3     1  UNL1        0.0768
     18 N         141.8952  142.8195  168.0201 N.3     1  UNL1       -0.2720
     19 C         140.4983  143.0788  167.5390 C.3     1  UNL1        0.0768
     20 C         139.9969  143.1700  166.1283 C.3     1  UNL1        0.0434
     21 C         140.9813  141.1829  171.2341 C.3     1  UNL1        0.0666
     22 S         140.6330  139.8546  170.6306 S.3     1  UNL1       -0.0756
     23 C         140.3099  139.7565  169.1691 C.ar    1  UNL1        0.1932
     24 N         138.9436  139.8623  168.5591 N.ar    1  UNL1       -0.1221
     25 N         139.0856  139.7065  167.0740 N.ar    1  UNL1       -0.1282
     26 C         140.5397  139.5045  166.7661 C.ar    1  UNL1        0.1669
     27 N         141.2964  139.5354  168.0610 N.ar    1  UNL1       -0.2884
     28 C         142.7792  139.3736  168.2197 C.3     1  UNL1        0.1340
     29 C         141.1331  139.3064  165.4028 C.ar    1  UNL1        0.0374
     30 C         142.5762  138.9225  165.2614 C.ar    1  UNL1        0.0031
     31 C         143.1695  138.7244  163.8981 C.ar    1  UNL1        0.0016
     32 C         142.3198  138.9101  162.6761 C.ar    1  UNL1        0.0191
     33 C         140.8766  139.2940  162.8174 C.ar    1  UNL1        0.0810
     34 N         140.0268  139.4798  161.5954 N.ar    1  UNL1       -0.2497
     35 C         138.5836  139.8637  161.7367 C.ar    1  UNL1        0.0593
     36 C         137.7338  140.0494  160.5147 C.3     1  UNL1        0.0521
     37 C         137.9903  140.0618  163.1001 C.ar    1  UNL1        0.0147
     38 C         138.8402  139.8760  164.3221 C.ar    1  UNL1        0.0028
     39 C         140.2833  139.4921  164.1808 C.ar    1  UNL1        0.0206
@<TRIPOS>BOND
     1     3     4    1
     2     4     5    2
     3     4     6   am
     4     6     7    1
     5     7     8    1
     6     8     9    1
     7     9    10    1
     8    10    11   ar
     9    11    12   ar
    10    12    13   ar
    11    13    14   ar
    12    14    15   ar
    13    13    16    1
    14    16    17    1
    15    17    18    1
    16    18     2    1
    17     2     1    1
    18     1    21    1
    19    21    22    1
    20    22    23    1
    21    23    24   ar
    22    24    25   ar
    23    25    26   ar
    24    26    29    1
    25    29    30   ar
    26    30    31   ar
    27    31    32   ar
    28    32    33   ar
    29    33    34   ar
    30    34    35   ar
    31    35    36    1
    32    35    37   ar
    33    37    38   ar
    34    38    39   ar
    35    26    27   ar
    36    27    28    1
    37    18    19    1
    38    19    20    1
    39    15     6    1
    40    27    23   ar
    41    15    10   ar
    42    39    29   ar
    43    20    12    1
    44    39    33   ar
@<TRIPOS>MOLECULE
*****
 39 44 0 0 0
SMALL
GASTEIGER

@<TRIPOS>ATOM
      1 C         141.0949  144.4832  157.6443 C.3     1  UNL1        0.0294
      2 C         141.4736  145.1218  158.9478 C.3     1  UNL1        0.0730
      3 C         140.3038  141.6793  168.9720 C.3     1  UNL1        0.0952
      4 C         140.6234  141.9742  167.5364 C.2     1  UNL1        0.2300
      5 O         139.9846  143.1457  166.8512 O.2     1  UNL1       -0.2745
      6 N         141.5818  141.0975  166.7861 N.am    1  UNL1       -0.2522
      7 C         142.2206  139.9261  167.4713 C.3     1  UNL1        0.1455
      8 C         143.1790  139.0494  166.7210 C.3     1  UNL1        0.2272
      9 O         143.4986  139.3443  165.2853 O.3     1  UNL1       -0.4724
     10 C         142.8598  140.5158  164.6002 C.ar    1  UNL1        0.1518
     11 C         143.1795  140.8107  163.1646 C.ar    1  UNL1        0.0337
     12 C         142.5406  141.9823  162.4794 C.ar    1  UNL1       -0.0216
     13 C         141.5823  142.8588  163.2297 C.ar    1  UNL1       -0.0233
     14 C         141.2627  142.5640  164.6652 C.ar    1  UNL1        0.0135
     15 C         141.9014  141.3925  165.3505 C.ar    1  UNL1        0.0878
     16 C         140.8407  144.0673  162.7402 C.3     1  UNL1        0.0434
     17 C         140.8743  144.6977  161.3794 C.3     1  UNL1        0.0768
     18 N         141.6578  144.2752  160.1722 N.3     1  UNL1       -0.2720
     19 C         142.6013  143.1180  160.0274 C.3     1  UNL1        0.0768
     20 C         142.9942  142.0976  161.0542 C.3     1  UNL1        0.0434
     21 C         139.6487  144.3239  157.2794 C.3     1  UNL1        0.0666
     22 S         138.9633  143.0061  157.4879 S.3     1  UNL1       -0.0756
     23 C         138.9519  142.3736  158.8480 C.ar    1  UNL1        0.1932
     24 N         138.1519  142.8371  160.0291 N.ar    1  UNL1       -0.1221
     25 N         138.4440  141.9165  161.1769 N.ar    1  UNL1       -0.1282
     26 C         139.4245  140.8841  160.7050 C.ar    1  UNL1        0.1669
     27 N         139.7384  141.1666  159.2656 N.ar    1  UNL1       -0.2884
     28 C         140.6745  140.3801  158.3966 C.3     1  UNL1        0.1340
     29 C         139.9916  139.7655  161.5279 C.ar    1  UNL1        0.0374
     30 C         141.0092  138.8379  160.9330 C.ar    1  UNL1        0.0031
     31 C         141.5762  137.7193  161.7559 C.ar    1  UNL1        0.0016
     32 C         141.1258  137.5284  163.1739 C.ar    1  UNL1        0.0191
     33 C         140.1082  138.4561  163.7688 C.ar    1  UNL1        0.0810
     34 N         139.6577  138.2652  165.1868 N.ar    1  UNL1       -0.2497
     35 C         138.6402  139.1928  165.7819 C.ar    1  UNL1        0.0593
     36 C         138.1897  139.0020  167.1998 C.3     1  UNL1        0.0521
     37 C         138.0731  140.3114  164.9588 C.ar    1  UNL1        0.0147
     38 C         138.5236  140.5023  163.5409 C.ar    1  UNL1        0.0028
     39 C         139.5412  139.5746  162.9459 C.ar    1  UNL1        0.0206
@<TRIPOS>BOND
     1     3     4    1
     2     4     5    2
     3     4     6   am
     4     6     7    1
     5     7     8    1
     6     8     9    1
     7     9    10    1
     8    10    11   ar
     9    11    12   ar
    10    12    13   ar
    11    13    14   ar
    12    14    15   ar
    13    13    16    1
    14    16    17    1
    15    17    18    1
    16    18     2    1
    17     2     1    1
    18     1    21    1
    19    21    22    1
    20    22    23    1
    21    23    24   ar
    22    24    25   ar
    23    25    26   ar
    24    26    29    1
    25    29    30   ar
    26    30    31   ar
    27    31    32   ar
    28    32    33   ar
    29    33    34   ar
    30    34    35   ar
    31    35    36    1
    32    35    37   ar
    33    37    38   ar
    34    38    39   ar
    35    26    27   ar
    36    27    28    1
    37    18    19    1
    38    19    20    1
    39    15     6    1
    40    27    23   ar
    41    15    10   ar
    42    39    29   ar
    43    20    12    1
    44    39    33   ar
@<TRIPOS>MOLECULE
*****
 39 44 0 0 0
SMALL
GASTEIGER

@<TRIPOS>ATOM
      1 C         141.2043  144.5917  158.6430 C.3     1  UNL1        0.0294
      2 C         141.0492  145.3267  159.9415 C.3     1  UNL1        0.0730
      3 C         143.4680  141.5704  169.6237 C.3     1  UNL1        0.0952
      4 C         142.9217  141.9661  168.2839 C.2     1  UNL1        0.2300
      5 O         143.7010  142.8951  167.4008 O.2     1  UNL1       -0.2745
      6 N         141.5962  141.4327  167.8271 N.am    1  UNL1       -0.2522
      7 C         140.8171  140.5037  168.7101 C.3     1  UNL1        0.1455
      8 C         139.4916  139.9703  168.2534 C.3     1  UNL1        0.2272
      9 O         138.9453  140.3659  166.9135 O.3     1  UNL1       -0.4724
     10 C         139.7245  141.2950  166.0306 C.ar    1  UNL1        0.1518
     11 C         139.1782  141.6906  164.6908 C.ar    1  UNL1        0.0337
     12 C         139.9575  142.6197  163.8078 C.ar    1  UNL1       -0.0216
     13 C         141.2828  143.1530  164.2645 C.ar    1  UNL1       -0.0233
     14 C         141.8292  142.7574  165.6043 C.ar    1  UNL1        0.0135
     15 C         141.0500  141.8284  166.4873 C.ar    1  UNL1        0.0878
     16 C         142.2145  144.0836  163.5460 C.3     1  UNL1        0.0434
     17 C         142.0506  144.7106  162.1931 C.3     1  UNL1        0.0768
     18 N         140.9148  144.5618  161.2249 N.3     1  UNL1       -0.2720
     19 C         139.6622  143.7495  161.3701 C.3     1  UNL1        0.0768
     20 C         139.2361  142.8851  162.5196 C.3     1  UNL1        0.0434
     21 C         142.5674  144.4026  158.0463 C.3     1  UNL1        0.0666
     22 S         143.1700  143.0310  157.9724 S.3     1  UNL1       -0.0756
     23 C         142.7907  141.9897  158.9832 C.ar    1  UNL1        0.1932
     24 N         141.7478  140.9265  158.8049 N.ar    1  UNL1       -0.1221
     25 N         141.7002  140.1084  160.0613 N.ar    1  UNL1       -0.1282
     26 C         142.7138  140.6661  161.0161 C.ar    1  UNL1        0.1669
     27 N         143.3878  141.8288  160.3498 N.ar    1  UNL1       -0.2884
     28 C         144.4690  142.6809  160.9456 C.3     1  UNL1        0.1340
     29 C         143.0027  140.1514  162.3951 C.ar    1  UNL1        0.0374
     30 C         144.3490  140.3823  163.0151 C.ar    1  UNL1        0.0031
     31 C         144.6379  139.8676  164.3941 C.ar    1  UNL1        0.0016
     32 C         143.5806  139.1221  165.1532 C.ar    1  UNL1        0.0191
     33 C         142.2344  138.8913  164.5333 C.ar    1  UNL1        0.0810
     34 N         141.1770  138.1458  165.2923 N.ar    1  UNL1       -0.2497
     35 C         139.8307  137.9149  164.6724 C.ar    1  UNL1        0.0593
     36 C         138.7734  137.1693  165.4315 C.3     1  UNL1        0.0521
     37 C         139.5419  138.4296  163.2934 C.ar    1  UNL1        0.0147
     38 C         140.5992  139.1751  162.5343 C.ar    1  UNL1        0.0028
     39 C         141.9455  139.4059  163.1543 C.ar    1  UNL1        0.0206
@<TRIPOS>BOND
     1     3     4    1
     2     4     5    2
     3     4     6   am
     4     6     7    1
     5     7     8    1
     6     8     9    1
     7     9    10    1
     8    10    11   ar
     9    11    12   ar
    10    12    13   ar
    11    13    14   ar
    12    14    15   ar
    13    13    16    1
    14    16    17    1
    15    17    18    1
    16    18     2    1
    17     2     1    1
    18     1    21    1
    19    21    22    1
    20    22    23    1
    21    23    24   ar
    22    24    25   ar
    23    25    26   ar
    24    26    29    1
    25    29    30   ar
    26    30    31   ar
    27    31    32   ar
    28    32    33   ar
    29    33    34   ar
    30    34    35   ar
    31    35    36    1
    32    35    37   ar
    33    37    38   ar
    34    38    39   ar
    35    26    27   ar
    36    27    28    1
    37    18    19    1
    38    19    20    1
    39    15     6    1
    40    27    23   ar
    41    15    10   ar
    42    39    29   ar
    43    20    12    1
    44    39    33   ar
@<TRIPOS>MOLECULE
*****
 39 44 0 0 0
SMALL
GASTEIGER

@<TRIPOS>ATOM
      1 C         141.5007  142.1596  170.2183 C.3     1  UNL1        0.0294
      2 C         142.5398  142.6070  169.2333 C.3     1  UNL1        0.0730
      3 C         143.8348  142.8737  158.6523 C.3     1  UNL1        0.0952
      4 C         143.4145  142.8753  160.0923 C.2     1  UNL1        0.2300
      5 O         144.4355  142.6693  161.1718 O.2     1  UNL1       -0.2745
      6 N         141.9733  143.0828  160.4527 N.am    1  UNL1       -0.2522
      7 C         140.9524  143.2888  159.3733 C.3     1  UNL1        0.1455
      8 C         139.5112  143.4963  159.7338 C.3     1  UNL1        0.2272
      9 O         139.0910  143.4978  161.1737 O.3     1  UNL1       -0.4724
     10 C         140.1119  143.2918  162.2531 C.ar    1  UNL1        0.1518
     11 C         139.6917  143.2934  163.6931 C.ar    1  UNL1        0.0337
     12 C         140.7127  143.0874  164.7726 C.ar    1  UNL1       -0.0216
     13 C         142.1538  142.8799  164.4121 C.ar    1  UNL1       -0.0233
     14 C         142.5741  142.8783  162.9722 C.ar    1  UNL1        0.0135
     15 C         141.5531  143.0843  161.8927 C.ar    1  UNL1        0.0878
     16 C         143.3236  142.6582  165.3246 C.3     1  UNL1        0.0434
     17 C         143.3409  142.5893  166.8230 C.3     1  UNL1        0.0768
     18 N         142.1930  142.7251  167.7787 N.3     1  UNL1       -0.2720
     19 C         140.7440  142.9632  167.4724 C.3     1  UNL1        0.0768
     20 C         140.0852  143.1245  166.1345 C.3     1  UNL1        0.0434
     21 C         141.7143  140.9085  171.0177 C.3     1  UNL1        0.0666
     22 S         141.5745  139.5666  170.3622 S.3     1  UNL1       -0.0756
     23 C         141.7642  139.4324  168.8803 C.ar    1  UNL1        0.1932
     24 N         143.0475  139.0899  168.1832 N.ar    1  UNL1       -0.1221
     25 N         142.7804  139.0629  166.7074 N.ar    1  UNL1       -0.1282
     26 C         141.3321  139.3887  166.4924 C.ar    1  UNL1        0.1669
     27 N         140.7040  139.6170  167.8354 N.ar    1  UNL1       -0.2884
     28 C         139.2679  139.9684  168.0888 C.3     1  UNL1        0.1340
     29 C         140.6343  139.4716  165.1672 C.ar    1  UNL1        0.0374
     30 C         139.1415  139.6086  165.1129 C.ar    1  UNL1        0.0031
     31 C         138.4437  139.6915  163.7877 C.ar    1  UNL1        0.0016
     32 C         139.2386  139.6374  162.5168 C.ar    1  UNL1        0.0191
     33 C         140.7313  139.5003  162.5711 C.ar    1  UNL1        0.0810
     34 N         141.5262  139.4461  161.3003 N.ar    1  UNL1       -0.2497
     35 C         143.0190  139.3090  161.3545 C.ar    1  UNL1        0.0593
     36 C         143.8139  139.2549  160.0837 C.3     1  UNL1        0.0521
     37 C         143.7168  139.2262  162.6798 C.ar    1  UNL1        0.0147
     38 C         142.9218  139.2803  163.9507 C.ar    1  UNL1        0.0028
     39 C         141.4291  139.4174  163.8963 C.ar    1  UNL1        0.0206
@<TRIPOS>BOND
     1     3     4    1
     2     4     5    2
     3     4     6   am
     4     6     7    1
     5     7     8    1
     6     8     9    1
     7     9    10    1
     8    10    11   ar
     9    11    12   ar
    10    12    13   ar
    11    13    14   ar
    12    14    15   ar
    13    13    16    1
    14    16    17    1
    15    17    18    1
    16    18     2    1
    17     2     1    1
    18     1    21    1
    19    21    22    1
    20    22    23    1
    21    23    24   ar
    22    24    25   ar
    23    25    26   ar
    24    26    29    1
    25    29    30   ar
    26    30    31   ar
    27    31    32   ar
    28    32    33   ar
    29    33    34   ar
    30    34    35   ar
    31    35    36    1
    32    35    37   ar
    33    37    38   ar
    34    38    39   ar
    35    26    27   ar
    36    27    28    1
    37    18    19    1
    38    19    20    1
    39    15     6    1
    40    27    23   ar
    41    15    10   ar
    42    39    29   ar
    43    20    12    1
    44    39    33   ar
@<TRIPOS>MOLECULE
*****
 39 44 0 0 0
SMALL
GASTEIGER

@<TRIPOS>ATOM
      1 C         139.9623  144.6712  156.4911 C.3     1  UNL1        0.0294
      2 C         139.0581  143.4893  156.6800 C.3     1  UNL1        0.0730
      3 C         138.1271  139.1550  166.3781 C.3     1  UNL1        0.0952
      4 C         138.4189  139.5836  164.9705 C.2     1  UNL1        0.2300
      5 O         137.7338  140.7880  164.3959 O.2     1  UNL1       -0.2745
      6 N         139.3957  138.8077  164.1375 N.am    1  UNL1       -0.2522
      7 C         140.0807  137.6033  164.7121 C.3     1  UNL1        0.1455
      8 C         141.0575  136.8275  163.8791 C.3     1  UNL1        0.2272
      9 O         141.3493  137.2560  162.4715 O.3     1  UNL1       -0.4724
     10 C         140.6643  138.4604  161.8970 C.ar    1  UNL1        0.1518
     11 C         140.9561  138.8889  160.4894 C.ar    1  UNL1        0.0337
     12 C         140.2710  140.0933  159.9149 C.ar    1  UNL1       -0.0216
     13 C         139.2942  140.8691  160.7478 C.ar    1  UNL1       -0.0233
     14 C         139.0024  140.4407  162.1554 C.ar    1  UNL1        0.0135
     15 C         139.6874  139.2362  162.7300 C.ar    1  UNL1        0.0878
     16 C         138.5076  142.0900  160.3725 C.3     1  UNL1        0.0434
     17 C         138.5036  142.8365  159.0713 C.3     1  UNL1        0.0768
     18 N         139.2852  142.5465  157.8244 N.3     1  UNL1       -0.2720
     19 C         140.2638  141.4384  157.5704 C.3     1  UNL1        0.0768
     20 C         140.7025  140.3466  158.5008 C.3     1  UNL1        0.0434
     21 C         140.2639  145.5773  157.6479 C.3     1  UNL1        0.0666
     22 S         141.5881  145.4865  158.3463 S.3     1  UNL1       -0.0756
     23 C         141.7515  144.5786  159.5292 C.ar    1  UNL1        0.1932
     24 N         142.6368  143.3697  159.5972 N.ar    1  UNL1       -0.1221
     25 N         142.4907  142.7642  160.9617 N.ar    1  UNL1       -0.1282
     26 C         141.5149  143.5989  161.7371 C.ar    1  UNL1        0.1669
     27 N         141.0581  144.7203  160.8518 N.ar    1  UNL1       -0.2884
     28 C         140.0796  145.7947  161.2237 C.3     1  UNL1        0.1340
     29 C         141.0736  143.3551  163.1498 C.ar    1  UNL1        0.0374
     30 C         140.0681  144.2662  163.7893 C.ar    1  UNL1        0.0031
     31 C         139.6267  144.0224  165.2019 C.ar    1  UNL1        0.0016
     32 C         140.1907  142.8675  165.9752 C.ar    1  UNL1        0.0191
     33 C         141.1962  141.9564  165.3358 C.ar    1  UNL1        0.0810
     34 N         141.7603  140.8015  166.1090 N.ar    1  UNL1       -0.2497
     35 C         142.7658  139.8903  165.4696 C.ar    1  UNL1        0.0593
     36 C         143.3299  138.7354  166.2428 C.3     1  UNL1        0.0521
     37 C         143.2072  140.1342  164.0569 C.ar    1  UNL1        0.0147
     38 C         142.6431  141.2891  163.2836 C.ar    1  UNL1        0.0028
     39 C         141.6376  142.2002  163.9231 C.ar    1  UNL1        0.0206
@<TRIPOS>BOND
     1     3     4    1
     2     4     5    2
     3     4     6   am
     4     6     7    1
     5     7     8    1
     6     8     9    1
     7     9    10    1
     8    10    11   ar
     9    11    12   ar
    10    12    13   ar
    11    13    14   ar
    12    14    15   ar
    13    13    16    1
    14    16    17    1
    15    17    18    1
    16    18     2    1
    17     2     1    1
    18     1    21    1
    19    21    22    1
    20    22    23    1
    21    23    24   ar
    22    24    25   ar
    23    25    26   ar
    24    26    29    1
    25    29    30   ar
    26    30    31   ar
    27    31    32   ar
    28    32    33   ar
    29    33    34   ar
    30    34    35   ar
    31    35    36    1
    32    35    37   ar
    33    37    38   ar
    34    38    39   ar
    35    26    27   ar
    36    27    28    1
    37    18    19    1
    38    19    20    1
    39    15     6    1
    40    27    23   ar
    41    15    10   ar
    42    39    29   ar
    43    20    12    1
    44    39    33   ar
