@<TRIPOS>MOLECULE
*****
 38 43 0 0 0
SMALL
GASTEIGER

@<TRIPOS>ATOM
      1 C         140.6711  139.8698  169.2437 C.3     1  UNL1        0.0666
      2 S         142.1511  139.9229  169.0055 S.3     1  UNL1       -0.0756
      3 C         143.4806  142.1021  166.0817 C.ar    1  UNL1        0.1669
      4 N         143.7397  143.0010  167.2543 N.ar    1  UNL1       -0.1282
      5 N         143.2732  142.2940  168.4922 N.ar    1  UNL1       -0.1221
      6 C         142.7258  140.9582  168.0848 C.ar    1  UNL1        0.1932
      7 N         142.8540  140.8397  166.5950 N.ar    1  UNL1       -0.2884
      8 C         142.4299  139.6648  165.7643 C.3     1  UNL1        0.1340
      9 C         140.1282  145.9455  161.4729 C.3     1  UNL1        0.0521
     10 C         141.0445  145.0619  162.2666 C.ar    1  UNL1        0.0593
     11 C         140.7318  144.7526  163.7007 C.ar    1  UNL1        0.0147
     12 C         141.6481  143.8691  164.4943 C.ar    1  UNL1        0.0028
     13 C         142.8770  143.2949  163.8540 C.ar    1  UNL1        0.0206
     14 C         143.7932  142.4114  164.6477 C.ar    1  UNL1        0.0374
     15 C         145.0221  141.8372  164.0072 C.ar    1  UNL1        0.0031
     16 C         145.3347  142.1465  162.5731 C.ar    1  UNL1        0.0016
     17 C         144.4185  143.0300  161.7795 C.ar    1  UNL1        0.0191
     18 C         143.1896  143.6042  162.4199 C.ar    1  UNL1        0.0810
     19 N         142.2734  144.4877  161.6261 N.ar    1  UNL1       -0.2497
     20 C         139.7255  140.4096  168.2119 C.3     1  UNL1        0.0294
     21 C         138.9455  139.4676  167.3435 C.3     1  UNL1        0.0730
     22 N         138.8190  139.7338  165.8728 N.3     1  UNL1       -0.2720
     23 C         138.7938  141.1794  165.4730 C.3     1  UNL1        0.0768
     24 C         138.6777  141.7676  164.0979 C.3     1  UNL1        0.0434
     25 C         138.5583  141.0554  162.7832 C.ar    1  UNL1       -0.0230
     26 C         138.4652  142.0242  161.6417 C.ar    1  UNL1        0.0178
     27 C         138.3392  141.5168  160.2358 C.ar    1  UNL1        0.1198
     28 N         138.2290  142.2262  158.9188 N.ar    1  UNL1       -0.1946
     29 C         138.1280  141.1885  157.8403 C.ar    1  UNL1        0.2925
     30 O         138.1758  139.8378  158.4908 O.2     1  UNL1       -0.4237
     31 C         138.3063  140.0406  159.9712 C.ar    1  UNL1        0.1657
     32 C         138.3994  139.0719  161.1127 C.ar    1  UNL1        0.0346
     33 C         138.5254  139.5793  162.5187 C.ar    1  UNL1       -0.0216
     34 C         138.6038  138.4507  163.5036 C.3     1  UNL1        0.0434
     35 C         138.7345  138.5196  164.9964 C.3     1  UNL1        0.0768
     36 N         138.0015  141.4549  156.3696 N.pl3   1  UNL1       -0.2601
     37 C         138.7284  140.5874  155.3850 C.3     1  UNL1        0.1167
     38 C         137.1483  142.5887  155.8834 C.3     1  UNL1        0.1167
@<TRIPOS>BOND
     1     9    10    1
     2    10    11   ar
     3    11    12   ar
     4    12    13   ar
     5    13    14   ar
     6    14     3    1
     7     3     4   ar
     8     4     5   ar
     9     5     6   ar
    10     6     2    1
    11     2     1    1
    12     1    20    1
    13    20    21    1
    14    21    22    1
    15    22    23    1
    16    23    24    1
    17    24    25    1
    18    25    26   ar
    19    26    27   ar
    20    27    28   ar
    21    28    29   ar
    22    29    36    1
    23    36    37    1
    24    36    38    1
    25    29    30   ar
    26    30    31   ar
    27    31    32   ar
    28    32    33   ar
    29    33    34    1
    30    34    35    1
    31     6     7   ar
    32     7     8    1
    33    14    15   ar
    34    15    16   ar
    35    16    17   ar
    36    17    18   ar
    37    18    19   ar
    38    19    10   ar
    39    18    13   ar
    40     7     3   ar
    41    35    22    1
    42    33    25   ar
    43    31    27   ar
@<TRIPOS>MOLECULE
*****
 38 43 0 0 0
SMALL
GASTEIGER

@<TRIPOS>ATOM
      1 C         140.0326  144.6132  158.2316 C.3     1  UNL1        0.0666
      2 S         140.2572  143.1354  158.1075 S.3     1  UNL1       -0.0756
      3 C         140.5454  141.1880  161.4526 C.ar    1  UNL1        0.1669
      4 N         141.9225  141.0001  160.8882 N.ar    1  UNL1       -0.1282
      5 N         141.9821  141.7067  159.5665 N.ar    1  UNL1       -0.1221
      6 C         140.6419  142.3313  159.3139 C.ar    1  UNL1        0.1932
      7 N         139.7541  142.0108  160.4796 N.ar    1  UNL1       -0.2884
      8 C         138.3255  142.4380  160.6436 C.3     1  UNL1        0.1340
      9 C         143.8576  137.9819  166.5518 C.3     1  UNL1        0.0521
     10 C         142.9050  138.6484  165.6039 C.ar    1  UNL1        0.0593
     11 C         143.4031  139.1884  164.2961 C.ar    1  UNL1        0.0147
     12 C         142.4506  139.8550  163.3483 C.ar    1  UNL1        0.0028
     13 C         140.9999  139.9815  163.7082 C.ar    1  UNL1        0.0206
     14 C         140.0473  140.6480  162.7603 C.ar    1  UNL1        0.0374
     15 C         138.5967  140.7745  163.1204 C.ar    1  UNL1        0.0031
     16 C         138.0986  140.2345  164.4281 C.ar    1  UNL1        0.0016
     17 C         139.0511  139.5680  165.3759 C.ar    1  UNL1        0.0191
     18 C         140.5017  139.4415  165.0160 C.ar    1  UNL1        0.0810
     19 N         141.4543  138.7749  165.9639 N.ar    1  UNL1       -0.2497
     20 C         140.8752  145.4236  159.1716 C.3     1  UNL1        0.0294
     21 C         140.2826  145.9517  160.4444 C.3     1  UNL1        0.0730
     22 N         140.5149  145.2271  161.7371 N.3     1  UNL1       -0.2720
     23 C         141.9053  144.7061  161.9503 C.3     1  UNL1        0.0768
     24 C         142.4503  143.9486  163.1248 C.3     1  UNL1        0.0434
     25 C         141.7396  143.5252  164.3759 C.ar    1  UNL1       -0.0230
     26 C         142.6564  142.7830  165.3025 C.ar    1  UNL1        0.0178
     27 C         142.1420  142.2702  166.6149 C.ar    1  UNL1        0.1198
     28 N         142.8052  141.5102  167.7251 N.ar    1  UNL1       -0.1946
     29 C         141.7838  141.2699  168.7971 C.ar    1  UNL1        0.2925
     30 O         140.4894  141.8814  168.3494 O.2     1  UNL1       -0.4237
     31 C         140.7107  142.4996  167.0008 C.ar    1  UNL1        0.1657
     32 C         139.7939  143.2418  166.0742 C.ar    1  UNL1        0.0346
     33 C         140.3083  143.7546  164.7618 C.ar    1  UNL1       -0.0216
     34 C         139.2343  144.4641  163.9917 C.3     1  UNL1        0.0434
     35 C         139.3263  145.1194  162.6455 C.3     1  UNL1        0.0768
     36 N         142.0162  140.5454  170.0898 N.pl3   1  UNL1       -0.2601
     37 C         142.5196  139.1323  170.0775 C.3     1  UNL1        0.1167
     38 C         141.7454  141.2337  171.3947 C.3     1  UNL1        0.1167
@<TRIPOS>BOND
     1     9    10    1
     2    10    11   ar
     3    11    12   ar
     4    12    13   ar
     5    13    14   ar
     6    14     3    1
     7     3     4   ar
     8     4     5   ar
     9     5     6   ar
    10     6     2    1
    11     2     1    1
    12     1    20    1
    13    20    21    1
    14    21    22    1
    15    22    23    1
    16    23    24    1
    17    24    25    1
    18    25    26   ar
    19    26    27   ar
    20    27    28   ar
    21    28    29   ar
    22    29    36    1
    23    36    37    1
    24    36    38    1
    25    29    30   ar
    26    30    31   ar
    27    31    32   ar
    28    32    33   ar
    29    33    34    1
    30    34    35    1
    31     6     7   ar
    32     7     8    1
    33    14    15   ar
    34    15    16   ar
    35    16    17   ar
    36    17    18   ar
    37    18    19   ar
    38    19    10   ar
    39    18    13   ar
    40     7     3   ar
    41    35    22    1
    42    33    25   ar
    43    31    27   ar
@<TRIPOS>MOLECULE
*****
 38 43 0 0 0
SMALL
GASTEIGER

@<TRIPOS>ATOM
      1 C         140.0075  144.6716  157.8016 C.3     1  UNL1        0.0666
      2 S         139.3033  143.3473  157.7939 S.3     1  UNL1       -0.0756
      3 C         139.4614  140.9523  160.8443 C.ar    1  UNL1        0.1669
      4 N         138.3110  141.8352  161.2282 N.ar    1  UNL1       -0.1282
      5 N         138.1118  142.8397  160.1322 N.ar    1  UNL1       -0.1221
      6 C         139.1391  142.5778  159.0710 C.ar    1  UNL1        0.1932
      7 N         139.9731  141.4114  159.5111 N.ar    1  UNL1       -0.2884
      8 C         141.1180  140.8095  158.7513 C.3     1  UNL1        0.1340
      9 C         138.0777  138.9221  167.2641 C.3     1  UNL1        0.0521
     10 C         138.5594  139.1443  165.8610 C.ar    1  UNL1        0.0593
     11 C         138.0162  140.2857  165.0534 C.ar    1  UNL1        0.0147
     12 C         138.4980  140.5079  163.6504 C.ar    1  UNL1        0.0028
     13 C         139.5229  139.5888  163.0549 C.ar    1  UNL1        0.0206
     14 C         140.0047  139.8111  161.6518 C.ar    1  UNL1        0.0374
     15 C         141.0296  138.8919  161.0564 C.ar    1  UNL1        0.0031
     16 C         141.5729  137.7505  161.8640 C.ar    1  UNL1        0.0016
     17 C         141.0912  137.5283  163.2669 C.ar    1  UNL1        0.0191
     18 C         140.0662  138.4474  163.8624 C.ar    1  UNL1        0.0810
     19 N         139.5845  138.2251  165.2655 N.ar    1  UNL1       -0.2497
     20 C         141.0680  144.9512  158.8250 C.3     1  UNL1        0.0294
     21 C         140.7047  145.6184  160.1184 C.3     1  UNL1        0.0730
     22 N         140.7746  144.8495  161.4045 N.3     1  UNL1       -0.2720
     23 C         141.7782  143.7353  161.4428 C.3     1  UNL1        0.0768
     24 C         142.0868  142.7929  162.5683 C.3     1  UNL1        0.0434
     25 C         141.4681  142.7320  163.9333 C.ar    1  UNL1       -0.0230
     26 C         142.0688  141.6328  164.7587 C.ar    1  UNL1        0.0178
     27 C         141.5894  141.4002  166.1608 C.ar    1  UNL1        0.1198
     28 N         141.9897  140.4012  167.2057 N.ar    1  UNL1       -0.1946
     29 C         141.1570  140.6502  168.4282 C.ar    1  UNL1        0.2925
     30 O         140.2421  141.8030  168.1389 O.2     1  UNL1       -0.4237
     31 C         140.5092  142.2665  166.7377 C.ar    1  UNL1        0.1657
     32 C         139.9085  143.3657  165.9123 C.ar    1  UNL1        0.0346
     33 C         140.3880  143.5983  164.5101 C.ar    1  UNL1       -0.0216
     34 C         139.6598  144.7397  163.8643 C.3     1  UNL1        0.0434
     35 C         139.8319  145.2965  162.4821 C.3     1  UNL1        0.0768
     36 N         141.2271  139.8813  169.7143 N.pl3   1  UNL1       -0.2601
     37 C         142.4719  139.1224  170.0675 C.3     1  UNL1        0.1167
     38 C         140.0524  139.8712  170.6471 C.3     1  UNL1        0.1167
@<TRIPOS>BOND
     1     9    10    1
     2    10    11   ar
     3    11    12   ar
     4    12    13   ar
     5    13    14   ar
     6    14     3    1
     7     3     4   ar
     8     4     5   ar
     9     5     6   ar
    10     6     2    1
    11     2     1    1
    12     1    20    1
    13    20    21    1
    14    21    22    1
    15    22    23    1
    16    23    24    1
    17    24    25    1
    18    25    26   ar
    19    26    27   ar
    20    27    28   ar
    21    28    29   ar
    22    29    36    1
    23    36    37    1
    24    36    38    1
    25    29    30   ar
    26    30    31   ar
    27    31    32   ar
    28    32    33   ar
    29    33    34    1
    30    34    35    1
    31     6     7   ar
    32     7     8    1
    33    14    15   ar
    34    15    16   ar
    35    16    17   ar
    36    17    18   ar
    37    18    19   ar
    38    19    10   ar
    39    18    13   ar
    40     7     3   ar
    41    35    22    1
    42    33    25   ar
    43    31    27   ar
@<TRIPOS>MOLECULE
*****
 38 43 0 0 0
SMALL
GASTEIGER

@<TRIPOS>ATOM
      1 C         140.0784  144.7035  157.6176 C.3     1  UNL1        0.0666
      2 S         139.3834  143.3755  157.6746 S.3     1  UNL1       -0.0756
      3 C         139.7138  141.1283  160.8221 C.ar    1  UNL1        0.1669
      4 N         138.4755  141.9083  161.1515 N.ar    1  UNL1       -0.1282
      5 N         138.2011  142.8450  160.0125 N.ar    1  UNL1       -0.1221
      6 C         139.2697  142.6439  158.9792 C.ar    1  UNL1        0.1932
      7 N         140.2045  141.5830  159.4796 N.ar    1  UNL1       -0.2884
      8 C         141.4174  141.0673  158.7632 C.3     1  UNL1        0.1340
      9 C         138.0800  138.8678  167.1047 C.3     1  UNL1        0.0521
     10 C         138.6474  139.1704  165.7495 C.ar    1  UNL1        0.0593
     11 C         138.0116  140.2207  164.8876 C.ar    1  UNL1        0.0147
     12 C         138.5790  140.5232  163.5325 C.ar    1  UNL1        0.0028
     13 C         139.7822  139.7756  163.0391 C.ar    1  UNL1        0.0206
     14 C         140.3496  140.0782  161.6839 C.ar    1  UNL1        0.0374
     15 C         141.5527  139.3305  161.1907 C.ar    1  UNL1        0.0031
     16 C         142.1885  138.2803  162.0525 C.ar    1  UNL1        0.0016
     17 C         141.6212  137.9777  163.4076 C.ar    1  UNL1        0.0191
     18 C         140.4180  138.7253  163.9010 C.ar    1  UNL1        0.0810
     19 N         139.8506  138.4227  165.2562 N.ar    1  UNL1       -0.2497
     20 C         140.3251  145.4757  158.8797 C.3     1  UNL1        0.0294
     21 C         141.5897  145.2588  159.6566 C.3     1  UNL1        0.0730
     22 N         141.5456  144.5536  160.9797 N.3     1  UNL1       -0.2720
     23 C         140.4271  144.9561  161.8947 C.3     1  UNL1        0.0768
     24 C         140.1125  144.4435  163.2689 C.3     1  UNL1        0.0434
     25 C         140.8386  143.4020  164.0675 C.ar    1  UNL1       -0.0230
     26 C         140.1903  143.1844  165.4026 C.ar    1  UNL1        0.0178
     27 C         140.7620  142.1805  166.3593 C.ar    1  UNL1        0.1198
     28 N         140.3430  141.7528  167.7346 N.ar    1  UNL1       -0.1946
     29 C         141.3041  140.7022  168.2062 C.ar    1  UNL1        0.2925
     30 O         142.3170  140.4805  167.1224 O.2     1  UNL1       -0.4237
     31 C         141.9821  141.3942  165.9810 C.ar    1  UNL1        0.1657
     32 C         142.6304  141.6117  164.6459 C.ar    1  UNL1        0.0346
     33 C         142.0587  142.6156  163.6892 C.ar    1  UNL1       -0.0216
     34 C         142.8539  142.6767  162.4188 C.3     1  UNL1        0.0434
     35 C         142.6255  143.5392  161.2130 C.3     1  UNL1        0.0768
     36 N         141.2598  139.9970  169.5294 N.pl3   1  UNL1       -0.2601
     37 C         140.0803  140.1803  170.4378 C.3     1  UNL1        0.1167
     38 C         142.3950  139.1086  169.9442 C.3     1  UNL1        0.1167
@<TRIPOS>BOND
     1     9    10    1
     2    10    11   ar
     3    11    12   ar
     4    12    13   ar
     5    13    14   ar
     6    14     3    1
     7     3     4   ar
     8     4     5   ar
     9     5     6   ar
    10     6     2    1
    11     2     1    1
    12     1    20    1
    13    20    21    1
    14    21    22    1
    15    22    23    1
    16    23    24    1
    17    24    25    1
    18    25    26   ar
    19    26    27   ar
    20    27    28   ar
    21    28    29   ar
    22    29    36    1
    23    36    37    1
    24    36    38    1
    25    29    30   ar
    26    30    31   ar
    27    31    32   ar
    28    32    33   ar
    29    33    34    1
    30    34    35    1
    31     6     7   ar
    32     7     8    1
    33    14    15   ar
    34    15    16   ar
    35    16    17   ar
    36    17    18   ar
    37    18    19   ar
    38    19    10   ar
    39    18    13   ar
    40     7     3   ar
    41    35    22    1
    42    33    25   ar
    43    31    27   ar
@<TRIPOS>MOLECULE
*****
 38 43 0 0 0
SMALL
GASTEIGER

@<TRIPOS>ATOM
      1 C         142.1463  139.3077  157.4856 C.3     1  UNL1        0.0666
      2 S         140.9161  140.1127  157.1880 S.3     1  UNL1       -0.0756
      3 C         138.6679  140.9130  160.2493 C.ar    1  UNL1        0.1669
      4 N         137.7405  140.0753  159.4196 N.ar    1  UNL1       -0.1282
      5 N         138.4698  139.6736  158.1719 N.ar    1  UNL1       -0.1221
      6 C         139.8479  140.2630  158.2304 C.ar    1  UNL1        0.1932
      7 N         139.9703  141.0289  159.5143 N.ar    1  UNL1       -0.2884
      8 C         141.1825  141.7792  159.9812 C.3     1  UNL1        0.1340
      9 C         138.3025  138.1223  166.5205 C.3     1  UNL1        0.0521
     10 C         138.3141  138.9734  165.2854 C.ar    1  UNL1        0.0593
     11 C         138.6331  138.3595  163.9545 C.ar    1  UNL1        0.0147
     12 C         138.6447  139.2107  162.7194 C.ar    1  UNL1        0.0028
     13 C         138.3373  140.6757  162.8152 C.ar    1  UNL1        0.0206
     14 C         138.3489  141.5268  161.5801 C.ar    1  UNL1        0.0374
     15 C         138.0414  142.9918  161.6760 C.ar    1  UNL1        0.0031
     16 C         137.7224  143.6057  163.0070 C.ar    1  UNL1        0.0016
     17 C         137.7108  142.7546  164.2420 C.ar    1  UNL1        0.0191
     18 C         138.0182  141.2896  164.1462 C.ar    1  UNL1        0.0810
     19 N         138.0066  140.4385  165.3813 N.ar    1  UNL1       -0.2497
     20 C         142.1387  138.3138  158.6090 C.3     1  UNL1        0.0294
     21 C         143.3024  138.2394  159.5525 C.3     1  UNL1        0.0730
     22 N         143.1557  138.7251  160.9641 N.3     1  UNL1       -0.2720
     23 C         143.7762  140.0581  161.2615 C.3     1  UNL1        0.0768
     24 C         143.8021  140.8088  162.5599 C.3     1  UNL1        0.0434
     25 C         143.2142  140.4120  163.8815 C.ar    1  UNL1       -0.0230
     26 C         143.4668  141.4554  164.9291 C.ar    1  UNL1        0.0178
     27 C         142.9602  141.2533  166.3264 C.ar    1  UNL1        0.1198
     28 N         143.0553  142.1001  167.5609 N.ar    1  UNL1       -0.1946
     29 C         142.3549  141.3780  168.6735 C.ar    1  UNL1        0.2925
     30 O         141.8269  140.0849  168.1267 O.2     1  UNL1       -0.4237
     31 C         142.2010  140.0078  166.6762 C.ar    1  UNL1        0.1657
     32 C         141.9484  138.9644  165.6286 C.ar    1  UNL1        0.0346
     33 C         142.4549  139.1665  164.2312 C.ar    1  UNL1       -0.0216
     34 C         142.0962  138.0101  163.3457 C.3     1  UNL1        0.0434
     35 C         142.4081  137.8138  161.8916 C.3     1  UNL1        0.0768
     36 N         142.2083  141.8638  170.0851 N.pl3   1  UNL1       -0.2601
     37 C         142.9697  143.0715  170.5455 C.3     1  UNL1        0.1167
     38 C         141.3005  141.1419  171.0363 C.3     1  UNL1        0.1167
@<TRIPOS>BOND
     1     9    10    1
     2    10    11   ar
     3    11    12   ar
     4    12    13   ar
     5    13    14   ar
     6    14     3    1
     7     3     4   ar
     8     4     5   ar
     9     5     6   ar
    10     6     2    1
    11     2     1    1
    12     1    20    1
    13    20    21    1
    14    21    22    1
    15    22    23    1
    16    23    24    1
    17    24    25    1
    18    25    26   ar
    19    26    27   ar
    20    27    28   ar
    21    28    29   ar
    22    29    36    1
    23    36    37    1
    24    36    38    1
    25    29    30   ar
    26    30    31   ar
    27    31    32   ar
    28    32    33   ar
    29    33    34    1
    30    34    35    1
    31     6     7   ar
    32     7     8    1
    33    14    15   ar
    34    15    16   ar
    35    16    17   ar
    36    17    18   ar
    37    18    19   ar
    38    19    10   ar
    39    18    13   ar
    40     7     3   ar
    41    35    22    1
    42    33    25   ar
    43    31    27   ar
@<TRIPOS>MOLECULE
*****
 38 43 0 0 0
SMALL
GASTEIGER

@<TRIPOS>ATOM
      1 C         143.5373  141.7378  157.1123 C.3     1  UNL1        0.0666
      2 S         142.6541  140.5278  157.0360 S.3     1  UNL1       -0.0756
      3 C         141.5823  138.6941  160.2848 C.ar    1  UNL1        0.1669
      4 N         142.8122  137.9221  159.9084 N.ar    1  UNL1       -0.1282
      5 N         143.3633  138.5150  158.6456 N.ar    1  UNL1       -0.1221
      6 C         142.4741  139.6535  158.2415 C.ar    1  UNL1        0.1932
      7 N         141.3735  139.7641  159.2545 N.ar    1  UNL1       -0.2884
      8 C         140.2594  140.7685  159.2399 C.3     1  UNL1        0.1340
      9 C         143.0160  138.8738  167.0051 C.3     1  UNL1        0.0521
     10 C         142.4405  138.7655  165.6241 C.ar    1  UNL1        0.0593
     11 C         143.3090  139.0190  164.4276 C.ar    1  UNL1        0.0147
     12 C         142.7334  138.9107  163.0467 C.ar    1  UNL1        0.0028
     13 C         141.2894  138.5488  162.8622 C.ar    1  UNL1        0.0206
     14 C         140.7139  138.4405  161.4811 C.ar    1  UNL1        0.0374
     15 C         139.2700  138.0787  161.2968 C.ar    1  UNL1        0.0031
     16 C         138.4015  137.8251  162.4932 C.ar    1  UNL1        0.0016
     17 C         138.9770  137.9334  163.8741 C.ar    1  UNL1        0.0191
     18 C         140.4210  138.2953  164.0586 C.ar    1  UNL1        0.0810
     19 N         140.9965  138.4036  165.4396 N.ar    1  UNL1       -0.2497
     20 C         144.1614  142.1296  158.4189 C.3     1  UNL1        0.0294
     21 C         143.5819  143.2591  159.2180 C.3     1  UNL1        0.0730
     22 N         143.2817  143.0700  160.6754 N.3     1  UNL1       -0.2720
     23 C         141.8331  142.8955  161.0241 C.3     1  UNL1        0.0768
     24 C         141.2148  142.6883  162.3750 C.3     1  UNL1        0.0434
     25 C         141.8922  142.6045  163.7106 C.ar    1  UNL1       -0.0230
     26 C         140.9005  142.3894  164.8154 C.ar    1  UNL1        0.0178
     27 C         141.3719  142.2770  166.2350 C.ar    1  UNL1        0.1198
     28 N         140.6343  142.0655  167.5238 N.ar    1  UNL1       -0.1946
     29 C         141.6413  142.0374  168.6351 C.ar    1  UNL1        0.2925
     30 O         143.0014  142.2316  168.0331 O.2     1  UNL1       -0.4237
     31 C         142.8349  142.3797  166.5499 C.ar    1  UNL1        0.1657
     32 C         143.8266  142.5947  165.4450 C.ar    1  UNL1        0.0346
     33 C         143.3552  142.7071  164.0255 C.ar    1  UNL1       -0.0216
     34 C         144.5021  142.9190  163.0823 C.3     1  UNL1        0.0434
     35 C         144.4693  143.0804  161.5914 C.3     1  UNL1        0.0768
     36 N         141.3409  141.8483  170.0925 N.pl3   1  UNL1       -0.2601
     37 C         142.2280  140.9798  170.9346 C.3     1  UNL1        0.1167
     38 C         140.1536  142.5277  170.7079 C.3     1  UNL1        0.1167
@<TRIPOS>BOND
     1     9    10    1
     2    10    11   ar
     3    11    12   ar
     4    12    13   ar
     5    13    14   ar
     6    14     3    1
     7     3     4   ar
     8     4     5   ar
     9     5     6   ar
    10     6     2    1
    11     2     1    1
    12     1    20    1
    13    20    21    1
    14    21    22    1
    15    22    23    1
    16    23    24    1
    17    24    25    1
    18    25    26   ar
    19    26    27   ar
    20    27    28   ar
    21    28    29   ar
    22    29    36    1
    23    36    37    1
    24    36    38    1
    25    29    30   ar
    26    30    31   ar
    27    31    32   ar
    28    32    33   ar
    29    33    34    1
    30    34    35    1
    31     6     7   ar
    32     7     8    1
    33    14    15   ar
    34    15    16   ar
    35    16    17   ar
    36    17    18   ar
    37    18    19   ar
    38    19    10   ar
    39    18    13   ar
    40     7     3   ar
    41    35    22    1
    42    33    25   ar
    43    31    27   ar
@<TRIPOS>MOLECULE
*****
 38 43 0 0 0
SMALL
GASTEIGER

@<TRIPOS>ATOM
      1 C         142.9212  143.9949  157.9038 C.3     1  UNL1        0.0666
      2 S         141.5017  144.4493  157.7354 S.3     1  UNL1       -0.0756
      3 C         139.1442  143.2826  160.5897 C.ar    1  UNL1        0.1669
      4 N         138.3993  142.7968  159.3816 N.ar    1  UNL1       -0.1282
      5 N         139.1918  143.1747  158.1655 N.ar    1  UNL1       -0.1221
      6 C         140.4264  143.8941  158.6218 C.ar    1  UNL1        0.1932
      7 N         140.3970  143.9607  160.1200 N.ar    1  UNL1       -0.2884
      8 C         141.4376  144.5944  160.9950 C.3     1  UNL1        0.1340
      9 C         138.9729  137.7245  164.6305 C.3     1  UNL1        0.0521
     10 C         138.9077  139.0731  163.9770 C.ar    1  UNL1        0.0593
     11 C         139.3399  139.2367  162.5499 C.ar    1  UNL1        0.0147
     12 C         139.2746  140.5853  161.8965 C.ar    1  UNL1        0.0028
     13 C         138.7773  141.7703  162.6701 C.ar    1  UNL1        0.0206
     14 C         138.7121  143.1190  162.0166 C.ar    1  UNL1        0.0374
     15 C         138.2148  144.3039  162.7903 C.ar    1  UNL1        0.0031
     16 C         137.7826  144.1403  164.2174 C.ar    1  UNL1        0.0016
     17 C         137.8479  142.7917  164.8708 C.ar    1  UNL1        0.0191
     18 C         138.3452  141.6067  164.0972 C.ar    1  UNL1        0.0810
     19 N         138.4104  140.2581  164.7507 N.ar    1  UNL1       -0.2497
     20 C         143.2309  142.5324  158.0274 C.3     1  UNL1        0.0294
     21 C         144.3172  142.0714  158.9534 C.3     1  UNL1        0.0730
     22 N         144.0490  141.9544  160.4246 N.3     1  UNL1       -0.2720
     23 C         143.2607  140.7506  160.8486 C.3     1  UNL1        0.0768
     24 C         142.8333  140.3517  162.2301 C.3     1  UNL1        0.0434
     25 C         143.0885  141.0579  163.5284 C.ar    1  UNL1       -0.0230
     26 C         142.4834  140.3167  164.6837 C.ar    1  UNL1        0.0178
     27 C         142.6239  140.8550  166.0766 C.ar    1  UNL1        0.1198
     28 N         142.1384  140.3483  167.4023 N.ar    1  UNL1       -0.1946
     29 C         142.5841  141.3147  168.4594 C.ar    1  UNL1        0.2925
     30 O         143.3449  142.4187  167.7871 O.2     1  UNL1       -0.4237
     31 C         143.3696  142.1346  166.3145 C.ar    1  UNL1        0.1657
     32 C         143.9747  142.8759  165.1593 C.ar    1  UNL1        0.0346
     33 C         143.8342  142.3375  163.7663 C.ar    1  UNL1       -0.0216
     34 C         144.5088  143.2269  162.7644 C.3     1  UNL1        0.0434
     35 C         144.6044  143.0563  161.2772 C.3     1  UNL1        0.0768
     36 N         142.3158  141.1975  169.9306 N.pl3   1  UNL1       -0.2601
     37 C         141.5476  142.2725  170.6408 C.3     1  UNL1        0.1167
     38 C         142.8157  140.0054  170.6916 C.3     1  UNL1        0.1167
@<TRIPOS>BOND
     1     9    10    1
     2    10    11   ar
     3    11    12   ar
     4    12    13   ar
     5    13    14   ar
     6    14     3    1
     7     3     4   ar
     8     4     5   ar
     9     5     6   ar
    10     6     2    1
    11     2     1    1
    12     1    20    1
    13    20    21    1
    14    21    22    1
    15    22    23    1
    16    23    24    1
    17    24    25    1
    18    25    26   ar
    19    26    27   ar
    20    27    28   ar
    21    28    29   ar
    22    29    36    1
    23    36    37    1
    24    36    38    1
    25    29    30   ar
    26    30    31   ar
    27    31    32   ar
    28    32    33   ar
    29    33    34    1
    30    34    35    1
    31     6     7   ar
    32     7     8    1
    33    14    15   ar
    34    15    16   ar
    35    16    17   ar
    36    17    18   ar
    37    18    19   ar
    38    19    10   ar
    39    18    13   ar
    40     7     3   ar
    41    35    22    1
    42    33    25   ar
    43    31    27   ar
@<TRIPOS>MOLECULE
*****
 38 43 0 0 0
SMALL
GASTEIGER

@<TRIPOS>ATOM
      1 C         138.5572  139.3483  167.5945 C.3     1  UNL1        0.0666
      2 S         139.6668  140.2901  167.9574 S.3     1  UNL1       -0.0756
      3 C         141.9011  141.8108  165.1715 C.ar    1  UNL1        0.1669
      4 N         140.8617  142.8813  165.3261 N.ar    1  UNL1       -0.1282
      5 N         139.8983  142.4419  166.3885 N.ar    1  UNL1       -0.1221
      6 C         140.3422  141.0999  166.8906 C.ar    1  UNL1        0.1932
      7 N         141.5799  140.7099  166.1384 N.ar    1  UNL1       -0.2884
      8 C         142.3597  139.4415  166.3210 C.3     1  UNL1        0.1340
      9 C         142.0680  141.8606  158.2998 C.3     1  UNL1        0.0521
     10 C         142.3156  141.8546  159.7793 C.ar    1  UNL1        0.0593
     11 C         141.1583  141.8287  160.7333 C.ar    1  UNL1        0.0147
     12 C         141.4059  141.8227  162.2127 C.ar    1  UNL1        0.0028
     13 C         142.8107  141.8427  162.7381 C.ar    1  UNL1        0.0206
     14 C         143.0583  141.8367  164.2176 C.ar    1  UNL1        0.0374
     15 C         144.4631  141.8567  164.7429 C.ar    1  UNL1        0.0031
     16 C         145.6204  141.8826  163.7890 C.ar    1  UNL1        0.0016
     17 C         145.3728  141.8886  162.3096 C.ar    1  UNL1        0.0191
     18 C         143.9680  141.8686  161.7842 C.ar    1  UNL1        0.0810
     19 N         143.7205  141.8746  160.3047 N.ar    1  UNL1       -0.2497
     20 C         138.2027  139.1266  166.1539 C.3     1  UNL1        0.0294
     21 C         138.6610  137.8829  165.4517 C.3     1  UNL1        0.0730
     22 N         139.2761  137.9757  164.0867 N.3     1  UNL1       -0.2720
     23 C         138.3281  138.2816  162.9652 C.3     1  UNL1        0.0768
     24 C         138.6277  138.4377  161.5036 C.3     1  UNL1        0.0434
     25 C         139.9491  138.3264  160.8029 C.ar    1  UNL1       -0.0230
     26 C         139.8076  138.5542  159.3270 C.ar    1  UNL1        0.0178
     27 C         141.0144  138.4871  158.4386 C.ar    1  UNL1        0.1198
     28 N         141.1827  138.6665  156.9590 N.ar    1  UNL1       -0.1946
     29 C         142.6350  138.4825  156.6319 C.ar    1  UNL1        0.2925
     30 O         143.3643  138.1894  157.9095 O.2     1  UNL1       -0.4237
     31 C         142.3627  138.1922  159.0260 C.ar    1  UNL1        0.1657
     32 C         142.5043  137.9645  160.5019 C.ar    1  UNL1        0.0346
     33 C         141.2975  138.0315  161.3903 C.ar    1  UNL1       -0.0216
     34 C         141.6573  137.7751  162.8237 C.3     1  UNL1        0.0434
     35 C         140.7576  137.7503  164.0237 C.3     1  UNL1        0.0768
     36 N         143.2500  138.5753  155.2669 N.pl3   1  UNL1       -0.2601
     37 C         144.7424  138.5755  155.1151 C.3     1  UNL1        0.1167
     38 C         142.3727  138.6678  154.0537 C.3     1  UNL1        0.1167
@<TRIPOS>BOND
     1     9    10    1
     2    10    11   ar
     3    11    12   ar
     4    12    13   ar
     5    13    14   ar
     6    14     3    1
     7     3     4   ar
     8     4     5   ar
     9     5     6   ar
    10     6     2    1
    11     2     1    1
    12     1    20    1
    13    20    21    1
    14    21    22    1
    15    22    23    1
    16    23    24    1
    17    24    25    1
    18    25    26   ar
    19    26    27   ar
    20    27    28   ar
    21    28    29   ar
    22    29    36    1
    23    36    37    1
    24    36    38    1
    25    29    30   ar
    26    30    31   ar
    27    31    32   ar
    28    32    33   ar
    29    33    34    1
    30    34    35    1
    31     6     7   ar
    32     7     8    1
    33    14    15   ar
    34    15    16   ar
    35    16    17   ar
    36    17    18   ar
    37    18    19   ar
    38    19    10   ar
    39    18    13   ar
    40     7     3   ar
    41    35    22    1
    42    33    25   ar
    43    31    27   ar
@<TRIPOS>MOLECULE
*****
 38 43 0 0 0
SMALL
GASTEIGER

@<TRIPOS>ATOM
      1 C         142.7334  142.3557  156.9378 C.3     1  UNL1        0.0666
      2 S         141.2688  142.0580  157.0655 S.3     1  UNL1       -0.0756
      3 C         139.6949  141.4479  160.5607 C.ar    1  UNL1        0.1669
      4 N         140.0496  140.0482  160.1542 N.ar    1  UNL1       -0.1282
      5 N         140.6823  140.1065  158.7954 N.ar    1  UNL1       -0.1221
      6 C         140.7187  141.5421  158.3622 C.ar    1  UNL1        0.1932
      7 N         140.1085  142.3711  159.4531 N.ar    1  UNL1       -0.2884
      8 C         139.9412  143.8617  159.4391 C.3     1  UNL1        0.1340
      9 C         138.2659  137.8164  166.2194 C.3     1  UNL1        0.0521
     10 C         138.4598  138.8256  165.1266 C.ar    1  UNL1        0.0593
     11 C         139.1133  138.4203  163.8387 C.ar    1  UNL1        0.0147
     12 C         139.3072  139.4295  162.7461 C.ar    1  UNL1        0.0028
     13 C         138.8476  140.8440  162.9413 C.ar    1  UNL1        0.0206
     14 C         139.0415  141.8532  161.8486 C.ar    1  UNL1        0.0374
     15 C         138.5819  143.2676  162.0439 C.ar    1  UNL1        0.0031
     16 C         137.9285  143.6729  163.3318 C.ar    1  UNL1        0.0016
     17 C         137.7346  142.6637  164.4244 C.ar    1  UNL1        0.0191
     18 C         138.1942  141.2493  164.2292 C.ar    1  UNL1        0.0810
     19 N         138.0003  140.2401  165.3219 N.ar    1  UNL1       -0.2497
     20 C         143.4732  142.9853  158.0809 C.3     1  UNL1        0.0294
     21 C         144.1247  142.1210  159.1194 C.3     1  UNL1        0.0730
     22 N         143.5578  142.0592  160.5068 N.3     1  UNL1       -0.2720
     23 C         143.5584  140.7042  161.1502 C.3     1  UNL1        0.0768
     24 C         143.0666  140.3158  162.5132 C.3     1  UNL1        0.0434
     25 C         142.4529  141.1866  163.5691 C.ar    1  UNL1       -0.0230
     26 C         142.0988  140.3959  164.7937 C.ar    1  UNL1        0.0178
     27 C         141.4712  141.0794  165.9722 C.ar    1  UNL1        0.1198
     28 N         141.0166  140.5651  167.3059 N.ar    1  UNL1       -0.1946
     29 C         140.4622  141.7213  168.0842 C.ar    1  UNL1        0.2925
     30 O         140.5740  142.9502  167.2314 O.2     1  UNL1       -0.4237
     31 C         141.1976  142.5535  165.9262 C.ar    1  UNL1        0.1657
     32 C         141.5517  143.3442  164.7016 C.ar    1  UNL1        0.0346
     33 C         142.1794  142.6607  163.5231 C.ar    1  UNL1       -0.0216
     34 C         142.4520  143.6282  162.4097 C.3     1  UNL1        0.0434
     35 C         143.0654  143.3604  161.0673 C.3     1  UNL1        0.0768
     36 N         139.8953  141.6594  169.4716 N.pl3   1  UNL1       -0.2601
     37 C         139.2899  140.3838  169.9781 C.3     1  UNL1        0.1167
     38 C         139.9339  142.8729  170.3524 C.3     1  UNL1        0.1167
@<TRIPOS>BOND
     1     9    10    1
     2    10    11   ar
     3    11    12   ar
     4    12    13   ar
     5    13    14   ar
     6    14     3    1
     7     3     4   ar
     8     4     5   ar
     9     5     6   ar
    10     6     2    1
    11     2     1    1
    12     1    20    1
    13    20    21    1
    14    21    22    1
    15    22    23    1
    16    23    24    1
    17    24    25    1
    18    25    26   ar
    19    26    27   ar
    20    27    28   ar
    21    28    29   ar
    22    29    36    1
    23    36    37    1
    24    36    38    1
    25    29    30   ar
    26    30    31   ar
    27    31    32   ar
    28    32    33   ar
    29    33    34    1
    30    34    35    1
    31     6     7   ar
    32     7     8    1
    33    14    15   ar
    34    15    16   ar
    35    16    17   ar
    36    17    18   ar
    37    18    19   ar
    38    19    10   ar
    39    18    13   ar
    40     7     3   ar
    41    35    22    1
    42    33    25   ar
    43    31    27   ar
