@<TRIPOS>MOLECULE
*****
 29 31 0 0 0
SMALL
GASTEIGER

@<TRIPOS>ATOM
      1 C         141.5260  141.6119  168.9622 C.ar    1  UNL1        0.0395
      2 C         141.8286  141.1958  167.5533 C.ar    1  UNL1        0.0063
      3 C         140.8641  140.3238  166.8054 C.ar    1  UNL1        0.0377
      4 C         139.5972  139.8679  167.4664 C.ar    1  UNL1        0.1473
      5 C         139.2946  140.2841  168.8754 C.ar    1  UNL1        0.0377
      6 C         140.2591  141.1561  169.6233 C.ar    1  UNL1        0.0063
      7 N         144.5442  143.5263  170.4761 N.ar    1  UNL1       -0.1495
      8 N         143.4050  144.1256  171.2464 N.ar    1  UNL1       -0.0450
      9 N         142.1358  143.4814  170.7730 N.ar    1  UNL1       -0.1077
     10 C         142.4905  142.4840  169.7102 C.ar    1  UNL1        0.2058
     11 N         143.9790  142.5118  169.5267 N.ar    1  UNL1       -0.1297
     12 C         145.9940  143.8796  170.6285 C.3     1  UNL1        0.1670
     13 N         145.5888  146.3031  171.4725 N.3     1  UNL1       -0.3202
     14 C         146.3967  145.0394  171.4902 C.3     1  UNL1        0.0831
     15 H         146.0029  146.9804  172.1130 H       1  UNL1        0.1189
     16 H         144.6328  146.0995  171.7643 H       1  UNL1        0.1189
     17 C         147.6075  144.9355  172.3697 C.3     1  UNL1        0.0593
     18 C         148.0173  146.0997  173.2222 C.2     1  UNL1        0.0517
     19 O         146.9742  147.0061  173.8054 O.co2   1  UNL1       -0.5491
     20 O         149.4702  146.3574  173.4914 O.co2   1  UNL1       -0.5491
     21 O         138.6327  138.9959  166.7184 O.3     1  UNL1       -0.4344
     22 C         138.6790  138.9396  165.2202 C.ar    1  UNL1        0.2578
     23 N         139.1321  137.6870  164.5304 N.ar    1  UNL1       -0.2070
     24 C         139.1785  137.6308  163.0321 C.ar    1  UNL1        0.1135
     25 C         138.7717  138.8270  162.2238 C.ar    1  UNL1        0.0793
     26 CL        138.8181  138.7707  160.7256 Cl      1  UNL1       -0.0805
     27 C         138.3186  140.0795  162.9136 C.ar    1  UNL1        0.0474
     28 C         138.2723  140.1358  164.4118 C.ar    1  UNL1        0.1942
     29 F         137.8191  141.3884  165.1016 F       1  UNL1       -0.1992
@<TRIPOS>UNITY_ATOM_ATTR
19 1
charge -1
@<TRIPOS>BOND
     1    14    13    1
     2    14    17    1
     3    17    18    1
     4    18    19   ar
     5    18    20   ar
     6    14    12    1
     7    12     7    1
     8     7     8   ar
     9     8     9   ar
    10     9    10   ar
    11    10     1    1
    12     1     2   ar
    13     2     3   ar
    14     3     4   ar
    15     4    21    1
    16    21    22    1
    17    22    23   ar
    18    23    24   ar
    19    24    25   ar
    20    25    26    1
    21    25    27   ar
    22    27    28   ar
    23    28    29    1
    24     4     5   ar
    25     5     6   ar
    26    10    11   ar
    27    11     7   ar
    28     6     1   ar
    29    28    22   ar
    30    13    15    1
    31    13    16    1
@<TRIPOS>MOLECULE
*****
 29 31 0 0 0
SMALL
GASTEIGER

@<TRIPOS>ATOM
      1 C         138.6938  139.2768  165.6866 C.ar    1  UNL1        0.0395
      2 C         139.1247  137.9316  165.1819 C.ar    1  UNL1        0.0063
      3 C         138.9908  137.5989  163.7254 C.ar    1  UNL1        0.0377
      4 C         138.4261  138.6114  162.7736 C.ar    1  UNL1        0.1473
      5 C         137.9952  139.9566  163.2783 C.ar    1  UNL1        0.0377
      6 C         138.1291  140.2893  164.7347 C.ar    1  UNL1        0.0063
      7 N         139.6001  140.5868  169.2260 N.ar    1  UNL1       -0.1495
      8 N         138.4670  139.6563  169.5428 N.ar    1  UNL1       -0.0450
      9 N         137.9896  139.0523  168.2554 N.ar    1  UNL1       -0.1077
     10 C         138.8277  139.6095  167.1431 C.ar    1  UNL1        0.2058
     11 N         139.8230  140.5579  167.7430 N.ar    1  UNL1       -0.1297
     12 C         140.3744  141.4030  170.2182 C.3     1  UNL1        0.1670
     13 N         140.3224  143.9958  170.0624 N.3     1  UNL1       -0.3202
     14 C         141.0133  142.6919  169.7933 C.3     1  UNL1        0.0831
     15 H         140.8945  144.7629  169.7093 H       1  UNL1        0.1189
     16 H         140.1866  144.1076  171.0672 H       1  UNL1        0.1189
     17 C         142.3430  142.6768  169.0993 C.3     1  UNL1        0.0593
     18 C         143.5387  142.0817  169.7821 C.2     1  UNL1        0.0517
     19 O         144.7615  142.9180  170.0172 O.co2   1  UNL1       -0.5491
     20 O         143.5115  140.6504  170.2297 O.co2   1  UNL1       -0.5491
     21 O         138.2922  138.2786  161.3171 O.3     1  UNL1       -0.4344
     22 C         138.7375  139.2649  160.2784 C.ar    1  UNL1        0.2578
     23 N         137.7371  139.8628  159.3341 N.ar    1  UNL1       -0.2070
     24 C         138.1824  140.8491  158.2954 C.ar    1  UNL1        0.1135
     25 C         139.6281  141.2376  158.2011 C.ar    1  UNL1        0.0793
     26 CL        140.0734  142.2239  157.1624 Cl      1  UNL1       -0.0805
     27 C         140.6286  140.6397  159.1454 C.ar    1  UNL1        0.0474
     28 C         140.1833  139.6534  160.1840 C.ar    1  UNL1        0.1942
     29 F         141.1837  139.0556  161.1283 F       1  UNL1       -0.1992
@<TRIPOS>UNITY_ATOM_ATTR
19 1
charge -1
@<TRIPOS>BOND
     1    14    13    1
     2    14    17    1
     3    17    18    1
     4    18    19   ar
     5    18    20   ar
     6    14    12    1
     7    12     7    1
     8     7     8   ar
     9     8     9   ar
    10     9    10   ar
    11    10     1    1
    12     1     2   ar
    13     2     3   ar
    14     3     4   ar
    15     4    21    1
    16    21    22    1
    17    22    23   ar
    18    23    24   ar
    19    24    25   ar
    20    25    26    1
    21    25    27   ar
    22    27    28   ar
    23    28    29    1
    24     4     5   ar
    25     5     6   ar
    26    10    11   ar
    27    11     7   ar
    28     6     1   ar
    29    28    22   ar
    30    13    15    1
    31    13    16    1
@<TRIPOS>MOLECULE
*****
 29 31 0 0 0
SMALL
GASTEIGER

@<TRIPOS>ATOM
      1 C         143.2901  138.6101  162.7935 C.ar    1  UNL1        0.0395
      2 C         144.4383  139.2544  163.5120 C.ar    1  UNL1        0.0063
      3 C         144.4708  139.2702  165.0115 C.ar    1  UNL1        0.0377
      4 C         143.3550  138.6417  165.7925 C.ar    1  UNL1        0.1473
      5 C         142.2068  137.9974  165.0740 C.ar    1  UNL1        0.0377
      6 C         142.1743  137.9816  163.5745 C.ar    1  UNL1        0.0063
      7 N         142.5782  138.1624  159.0042 N.ar    1  UNL1       -0.1495
      8 N         143.8370  138.9775  158.9683 N.ar    1  UNL1       -0.0450
      9 N         144.2568  139.2444  160.3834 N.ar    1  UNL1       -0.1077
     10 C         143.2576  138.5943  161.2938 C.ar    1  UNL1        0.2058
     11 N         142.2202  137.9255  160.4414 N.ar    1  UNL1       -0.1297
     12 C         141.8121  137.6704  157.8121 C.3     1  UNL1        0.1670
     13 N         143.8399  137.4396  156.2045 N.3     1  UNL1       -0.3202
     14 C         142.5230  136.9347  156.7151 C.3     1  UNL1        0.0831
     15 H         144.1772  136.8225  155.4657 H       1  UNL1        0.1189
     16 H         144.5163  137.4574  156.9678 H       1  UNL1        0.1189
     17 C         141.9168  135.6942  156.1287 C.3     1  UNL1        0.0593
     18 C         142.5946  134.3689  156.3134 C.2     1  UNL1        0.0517
     19 O         141.8091  133.0988  156.1726 O.co2   1  UNL1       -0.5491
     20 O         144.0577  134.3137  156.6388 O.co2   1  UNL1       -0.5491
     21 O         143.3875  138.6575  167.2921 O.3     1  UNL1       -0.4344
     22 C         142.4627  139.5609  168.0529 C.ar    1  UNL1        0.2578
     23 N         141.8610  140.7580  167.3786 N.ar    1  UNL1       -0.2070
     24 C         140.9361  141.6614  168.1394 C.ar    1  UNL1        0.1135
     25 C         140.6131  141.3675  169.5744 C.ar    1  UNL1        0.0793
     26 CL        139.6883  142.2709  170.3351 Cl      1  UNL1       -0.0805
     27 C         141.2149  140.1704  170.2487 C.ar    1  UNL1        0.0474
     28 C         142.1397  139.2670  169.4879 C.ar    1  UNL1        0.1942
     29 F         142.7414  138.0699  170.1622 F       1  UNL1       -0.1992
@<TRIPOS>UNITY_ATOM_ATTR
19 1
charge -1
@<TRIPOS>BOND
     1    14    13    1
     2    14    17    1
     3    17    18    1
     4    18    19   ar
     5    18    20   ar
     6    14    12    1
     7    12     7    1
     8     7     8   ar
     9     8     9   ar
    10     9    10   ar
    11    10     1    1
    12     1     2   ar
    13     2     3   ar
    14     3     4   ar
    15     4    21    1
    16    21    22    1
    17    22    23   ar
    18    23    24   ar
    19    24    25   ar
    20    25    26    1
    21    25    27   ar
    22    27    28   ar
    23    28    29    1
    24     4     5   ar
    25     5     6   ar
    26    10    11   ar
    27    11     7   ar
    28     6     1   ar
    29    28    22   ar
    30    13    15    1
    31    13    16    1
@<TRIPOS>MOLECULE
*****
 29 31 0 0 0
SMALL
GASTEIGER

@<TRIPOS>ATOM
      1 C         138.5571  139.1609  165.3697 C.ar    1  UNL1        0.0395
      2 C         138.9462  137.8235  164.8129 C.ar    1  UNL1        0.0063
      3 C         138.9018  137.5858  163.3325 C.ar    1  UNL1        0.0377
      4 C         138.4684  138.6854  162.4090 C.ar    1  UNL1        0.1473
      5 C         138.0793  140.0228  162.9658 C.ar    1  UNL1        0.0377
      6 C         138.1237  140.2605  164.4461 C.ar    1  UNL1        0.0063
      7 N         139.2496  140.2311  169.0358 N.ar    1  UNL1       -0.1495
      8 N         138.0899  139.2978  169.2205 N.ar    1  UNL1       -0.0450
      9 N         137.6894  138.7833  167.8696 N.ar    1  UNL1       -0.1077
     10 C         138.6015  139.3986  166.8501 C.ar    1  UNL1        0.2058
     11 N         139.5658  140.2934  167.5709 N.ar    1  UNL1       -0.1297
     12 C         139.9672  140.9721  170.1250 C.3     1  UNL1        0.1670
     13 N         141.8417  141.0141  171.9234 N.3     1  UNL1       -0.3202
     14 C         141.2660  140.4461  170.6601 C.3     1  UNL1        0.0831
     15 H         142.7206  140.5432  172.1383 H       1  UNL1        0.1189
     16 H         141.1840  140.8730  172.6902 H       1  UNL1        0.1189
     17 C         141.9891  139.3521  169.9319 C.3     1  UNL1        0.0593
     18 C         142.7476  139.6615  168.6753 C.2     1  UNL1        0.0517
     19 O         143.3606  138.5498  167.8763 O.co2   1  UNL1       -0.5491
     20 O         142.8931  141.0825  168.2178 O.co2   1  UNL1       -0.5491
     21 O         138.4240  138.4477  160.9286 O.3     1  UNL1       -0.4344
     22 C         139.6191  138.7693  160.0811 C.ar    1  UNL1        0.2578
     23 N         140.9812  138.2968  160.4952 N.ar    1  UNL1       -0.2070
     24 C         142.1763  138.6185  159.6477 C.ar    1  UNL1        0.1135
     25 C         142.0094  139.4127  158.3862 C.ar    1  UNL1        0.0793
     26 CL        143.2045  139.7343  157.5388 Cl      1  UNL1       -0.0805
     27 C         140.6473  139.8852  157.9721 C.ar    1  UNL1        0.0474
     28 C         139.4522  139.5635  158.8196 C.ar    1  UNL1        0.1942
     29 F         138.0901  140.0360  158.4055 F       1  UNL1       -0.1992
@<TRIPOS>UNITY_ATOM_ATTR
19 1
charge -1
@<TRIPOS>BOND
     1    14    13    1
     2    14    17    1
     3    17    18    1
     4    18    19   ar
     5    18    20   ar
     6    14    12    1
     7    12     7    1
     8     7     8   ar
     9     8     9   ar
    10     9    10   ar
    11    10     1    1
    12     1     2   ar
    13     2     3   ar
    14     3     4   ar
    15     4    21    1
    16    21    22    1
    17    22    23   ar
    18    23    24   ar
    19    24    25   ar
    20    25    26    1
    21    25    27   ar
    22    27    28   ar
    23    28    29    1
    24     4     5   ar
    25     5     6   ar
    26    10    11   ar
    27    11     7   ar
    28     6     1   ar
    29    28    22   ar
    30    13    15    1
    31    13    16    1
@<TRIPOS>MOLECULE
*****
 29 31 0 0 0
SMALL
GASTEIGER

@<TRIPOS>ATOM
      1 C         141.5498  139.1233  165.6064 C.ar    1  UNL1        0.0395
      2 C         140.0830  139.2981  165.3459 C.ar    1  UNL1        0.0063
      3 C         139.4804  138.7807  164.0734 C.ar    1  UNL1        0.0377
      4 C         140.3447  138.0885  163.0615 C.ar    1  UNL1        0.1473
      5 C         141.8115  137.9137  163.3220 C.ar    1  UNL1        0.0377
      6 C         142.4140  138.4311  164.5944 C.ar    1  UNL1        0.0063
      7 N         143.0902  141.1299  168.5503 N.ar    1  UNL1       -0.1495
      8 N         143.0695  139.7439  169.1237 N.ar    1  UNL1       -0.0450
      9 N         142.4899  138.8236  168.0906 N.ar    1  UNL1       -0.1077
     10 C         142.1525  139.6407  166.8789 C.ar    1  UNL1        0.2058
     11 N         142.5234  141.0661  167.1629 N.ar    1  UNL1       -0.1297
     12 C         143.5899  142.3631  169.2427 C.3     1  UNL1        0.1670
     13 N         143.2392  143.9427  171.2754 N.3     1  UNL1       -0.3202
     14 C         142.6743  143.1432  170.1389 C.3     1  UNL1        0.0831
     15 H         142.4804  144.4055  171.7758 H       1  UNL1        0.1189
     16 H         143.8834  144.6443  170.9104 H       1  UNL1        0.1189
     17 C         141.1938  143.1237  169.8986 C.3     1  UNL1        0.0593
     18 C         140.2953  142.3476  170.8153 C.2     1  UNL1        0.0517
     19 O         139.0717  141.6718  170.2711 O.co2   1  UNL1       -0.5491
     20 O         140.6204  142.2473  172.2761 O.co2   1  UNL1       -0.5491
     21 O         139.7420  137.5710  161.7890 O.3     1  UNL1       -0.4344
     22 C         139.5992  138.4787  160.6034 C.ar    1  UNL1        0.2578
     23 N         138.3164  139.2230  160.3789 N.ar    1  UNL1       -0.2070
     24 C         138.1736  140.1308  159.1932 C.ar    1  UNL1        0.1135
     25 C         139.3136  140.2942  158.2322 C.ar    1  UNL1        0.0793
     26 CL        139.1708  141.2019  157.0466 Cl      1  UNL1       -0.0805
     27 C         140.5964  139.5499  158.4567 C.ar    1  UNL1        0.0474
     28 C         140.7392  138.6422  159.6423 C.ar    1  UNL1        0.1942
     29 F         142.0220  137.8978  159.8668 F       1  UNL1       -0.1992
@<TRIPOS>UNITY_ATOM_ATTR
19 1
charge -1
@<TRIPOS>BOND
     1    14    13    1
     2    14    17    1
     3    17    18    1
     4    18    19   ar
     5    18    20   ar
     6    14    12    1
     7    12     7    1
     8     7     8   ar
     9     8     9   ar
    10     9    10   ar
    11    10     1    1
    12     1     2   ar
    13     2     3   ar
    14     3     4   ar
    15     4    21    1
    16    21    22    1
    17    22    23   ar
    18    23    24   ar
    19    24    25   ar
    20    25    26    1
    21    25    27   ar
    22    27    28   ar
    23    28    29    1
    24     4     5   ar
    25     5     6   ar
    26    10    11   ar
    27    11     7   ar
    28     6     1   ar
    29    28    22   ar
    30    13    15    1
    31    13    16    1
@<TRIPOS>MOLECULE
*****
 29 31 0 0 0
SMALL
GASTEIGER

@<TRIPOS>ATOM
      1 C         138.5666  139.2666  163.1055 C.ar    1  UNL1        0.0395
      2 C         138.9026  137.9813  163.8020 C.ar    1  UNL1        0.0063
      3 C         138.9161  137.9217  165.3007 C.ar    1  UNL1        0.0377
      4 C         138.5936  139.1475  166.1029 C.ar    1  UNL1        0.1473
      5 C         138.2576  140.4327  165.4065 C.ar    1  UNL1        0.0377
      6 C         138.2441  140.4923  163.9077 C.ar    1  UNL1        0.0063
      7 N         139.1960  139.0694  159.2805 N.ar    1  UNL1       -0.1495
      8 N         137.8683  139.7664  159.3202 N.ar    1  UNL1       -0.0450
      9 N         137.4710  139.9251  160.7579 N.ar    1  UNL1       -0.1077
     10 C         138.5531  139.3262  161.6067 C.ar    1  UNL1        0.2058
     11 N         139.6192  138.7973  160.6936 N.ar    1  UNL1       -0.1297
     12 C         139.9654  138.7079  158.0446 C.3     1  UNL1        0.1670
     13 N         138.3312  139.7583  156.3195 N.3     1  UNL1       -0.3202
     14 C         139.2705  138.6581  156.7163 C.3     1  UNL1        0.0831
     15 H         137.9515  139.5636  155.3931 H       1  UNL1        0.1189
     16 H         138.8348  140.6451  156.3011 H       1  UNL1        0.1189
     17 C         139.5149  137.5082  155.7846 C.3     1  UNL1        0.0593
     18 C         138.5608  137.2391  154.6589 C.2     1  UNL1        0.0517
     19 O         139.0797  136.7702  153.3319 O.co2   1  UNL1       -0.5491
     20 O         137.0880  137.4391  154.8600 O.co2   1  UNL1       -0.5491
     21 O         138.6071  139.0879  167.6017 O.3     1  UNL1       -0.4344
     22 C         139.5607  139.9470  168.3779 C.ar    1  UNL1        0.2578
     23 N         140.9170  140.2574  167.8175 N.ar    1  UNL1       -0.2070
     24 C         141.8706  141.1166  168.5937 C.ar    1  UNL1        0.1135
     25 C         141.4679  141.6654  169.9304 C.ar    1  UNL1        0.0793
     26 CL        142.4214  142.5246  170.7065 Cl      1  UNL1       -0.0805
     27 C         140.1116  141.3551  170.4908 C.ar    1  UNL1        0.0474
     28 C         139.1580  140.4959  169.7146 C.ar    1  UNL1        0.1942
     29 F         137.8017  140.1855  170.2750 F       1  UNL1       -0.1992
@<TRIPOS>UNITY_ATOM_ATTR
19 1
charge -1
@<TRIPOS>BOND
     1    14    13    1
     2    14    17    1
     3    17    18    1
     4    18    19   ar
     5    18    20   ar
     6    14    12    1
     7    12     7    1
     8     7     8   ar
     9     8     9   ar
    10     9    10   ar
    11    10     1    1
    12     1     2   ar
    13     2     3   ar
    14     3     4   ar
    15     4    21    1
    16    21    22    1
    17    22    23   ar
    18    23    24   ar
    19    24    25   ar
    20    25    26    1
    21    25    27   ar
    22    27    28   ar
    23    28    29    1
    24     4     5   ar
    25     5     6   ar
    26    10    11   ar
    27    11     7   ar
    28     6     1   ar
    29    28    22   ar
    30    13    15    1
    31    13    16    1
@<TRIPOS>MOLECULE
*****
 29 31 0 0 0
SMALL
GASTEIGER

@<TRIPOS>ATOM
      1 C         143.0629  138.5541  161.7409 C.ar    1  UNL1        0.0395
      2 C         141.9436  137.8113  162.4083 C.ar    1  UNL1        0.0063
      3 C         141.8208  137.8250  163.9031 C.ar    1  UNL1        0.0377
      4 C         142.8173  138.5816  164.7306 C.ar    1  UNL1        0.1473
      5 C         143.9365  139.3244  164.0633 C.ar    1  UNL1        0.0377
      6 C         144.0594  139.3106  162.5684 C.ar    1  UNL1        0.0063
      7 N         142.9622  137.8937  157.9174 N.ar    1  UNL1       -0.1495
      8 N         143.7876  139.1450  157.9737 N.ar    1  UNL1       -0.0450
      9 N         143.9257  139.5446  159.4129 N.ar    1  UNL1       -0.1077
     10 C         143.1858  138.5404  160.2460 C.ar    1  UNL1        0.2058
     11 N         142.5903  137.5200  159.3217 N.ar    1  UNL1       -0.1297
     12 C         142.5765  137.1471  156.6748 C.3     1  UNL1        0.1670
     13 N         144.8430  137.3015  155.4143 N.3     1  UNL1       -0.3202
     14 C         143.6348  136.5118  155.8226 C.3     1  UNL1        0.0831
     15 H         145.4531  136.7179  154.8420 H       1  UNL1        0.1189
     16 H         145.3472  137.6064  156.2469 H       1  UNL1        0.1189
     17 C         143.4850  135.0868  155.3787 C.3     1  UNL1        0.0593
     18 C         143.7886  133.9687  156.3313 C.2     1  UNL1        0.0517
     19 O         143.5917  134.1649  157.8053 O.co2   1  UNL1       -0.5491
     20 O         144.2891  132.6543  155.8099 O.co2   1  UNL1       -0.5491
     21 O         142.6944  138.5953  166.2256 O.3     1  UNL1       -0.4344
     22 C         142.1102  139.7901  166.9192 C.ar    1  UNL1        0.2578
     23 N         143.0129  140.7901  167.5789 N.ar    1  UNL1       -0.2070
     24 C         142.4286  141.9849  168.2725 C.ar    1  UNL1        0.1135
     25 C         140.9417  142.1798  168.3063 C.ar    1  UNL1        0.0793
     26 CL        140.3576  143.3746  168.9999 Cl      1  UNL1       -0.0805
     27 C         140.0391  141.1798  167.6466 C.ar    1  UNL1        0.0474
     28 C         140.6233  139.9850  166.9530 C.ar    1  UNL1        0.1942
     29 F         139.7206  138.9850  166.2933 F       1  UNL1       -0.1992
@<TRIPOS>UNITY_ATOM_ATTR
19 1
charge -1
@<TRIPOS>BOND
     1    14    13    1
     2    14    17    1
     3    17    18    1
     4    18    19   ar
     5    18    20   ar
     6    14    12    1
     7    12     7    1
     8     7     8   ar
     9     8     9   ar
    10     9    10   ar
    11    10     1    1
    12     1     2   ar
    13     2     3   ar
    14     3     4   ar
    15     4    21    1
    16    21    22    1
    17    22    23   ar
    18    23    24   ar
    19    24    25   ar
    20    25    26    1
    21    25    27   ar
    22    27    28   ar
    23    28    29    1
    24     4     5   ar
    25     5     6   ar
    26    10    11   ar
    27    11     7   ar
    28     6     1   ar
    29    28    22   ar
    30    13    15    1
    31    13    16    1
@<TRIPOS>MOLECULE
*****
 29 31 0 0 0
SMALL
GASTEIGER

@<TRIPOS>ATOM
      1 C         140.6922  138.8578  158.7554 C.ar    1  UNL1        0.0395
      2 C         140.7054  138.6971  160.2467 C.ar    1  UNL1        0.0063
      3 C         139.5909  139.2678  161.0725 C.ar    1  UNL1        0.0377
      4 C         138.4630  139.9993  160.4069 C.ar    1  UNL1        0.1473
      5 C         138.4497  140.1600  158.9156 C.ar    1  UNL1        0.0377
      6 C         139.5643  139.5892  158.0899 C.ar    1  UNL1        0.0063
      7 N         143.1697  136.7468  156.6409 N.ar    1  UNL1       -0.1495
      8 N         143.8742  138.0706  156.6768 N.ar    1  UNL1       -0.0450
      9 N         143.0319  139.0225  157.4733 N.ar    1  UNL1       -0.1077
     10 C         141.8068  138.2870  157.9296 C.ar    1  UNL1        0.2058
     11 N         141.8920  136.8806  157.4152 N.ar    1  UNL1       -0.1297
     12 C         143.6574  135.5070  155.9517 C.3     1  UNL1        0.1670
     13 N         143.4825  134.1907  158.1848 N.3     1  UNL1       -0.3202
     14 C         143.7547  134.2164  156.7099 C.3     1  UNL1        0.0831
     15 H         143.5936  133.2390  158.5345 H       1  UNL1        0.1189
     16 H         142.5291  134.5082  158.3601 H       1  UNL1        0.1189
     17 C         144.1243  132.9515  155.9933 C.3     1  UNL1        0.0593
     18 C         144.9292  131.8990  156.6963 C.2     1  UNL1        0.0517
     19 O         145.5834  132.2081  158.0103 O.co2   1  UNL1       -0.5491
     20 O         145.0800  130.5374  156.0854 O.co2   1  UNL1       -0.5491
     21 O         137.3484  140.5701  161.2327 O.3     1  UNL1       -0.4344
     22 C         137.6382  141.6303  162.2534 C.ar    1  UNL1        0.2578
     23 N         137.6946  143.0718  161.8423 N.ar    1  UNL1       -0.2070
     24 C         137.9844  144.1320  162.8631 C.ar    1  UNL1        0.1135
     25 C         138.2178  143.7508  164.2949 C.ar    1  UNL1        0.0793
     26 CL        138.5077  144.8111  165.3156 Cl      1  UNL1       -0.0805
     27 C         138.1614  142.3094  164.7060 C.ar    1  UNL1        0.0474
     28 C         137.8716  141.2491  163.6853 C.ar    1  UNL1        0.1942
     29 F         137.8152  139.8077  164.0965 F       1  UNL1       -0.1992
@<TRIPOS>UNITY_ATOM_ATTR
19 1
charge -1
@<TRIPOS>BOND
     1    14    13    1
     2    14    17    1
     3    17    18    1
     4    18    19   ar
     5    18    20   ar
     6    14    12    1
     7    12     7    1
     8     7     8   ar
     9     8     9   ar
    10     9    10   ar
    11    10     1    1
    12     1     2   ar
    13     2     3   ar
    14     3     4   ar
    15     4    21    1
    16    21    22    1
    17    22    23   ar
    18    23    24   ar
    19    24    25   ar
    20    25    26    1
    21    25    27   ar
    22    27    28   ar
    23    28    29    1
    24     4     5   ar
    25     5     6   ar
    26    10    11   ar
    27    11     7   ar
    28     6     1   ar
    29    28    22   ar
    30    13    15    1
    31    13    16    1
@<TRIPOS>MOLECULE
*****
 29 31 0 0 0
SMALL
GASTEIGER

@<TRIPOS>ATOM
      1 C         143.3485  138.6589  162.8473 C.ar    1  UNL1        0.0395
      2 C         142.2055  138.0363  163.5928 C.ar    1  UNL1        0.0063
      3 C         142.2048  138.0270  165.0928 C.ar    1  UNL1        0.0377
      4 C         143.3471  138.6403  165.8471 C.ar    1  UNL1        0.1473
      5 C         144.4901  139.2629  165.1016 C.ar    1  UNL1        0.0377
      6 C         144.4908  139.2722  163.6016 C.ar    1  UNL1        0.0063
      7 N         143.0024  138.0183  159.0347 N.ar    1  UNL1       -0.1495
      8 N         143.6983  139.3471  159.0433 N.ar    1  UNL1       -0.0450
      9 N         143.9126  139.7488  160.4726 N.ar    1  UNL1       -0.1077
     10 C         143.3492  138.6682  161.3472 C.ar    1  UNL1        0.2058
     11 N         142.7867  137.5987  160.4586 N.ar    1  UNL1       -0.1297
     12 C         142.5940  137.2448  157.8161 C.3     1  UNL1        0.1670
     13 N         141.5390  139.2659  156.5705 N.3     1  UNL1       -0.3202
     14 C         141.5539  137.8002  156.8890 C.3     1  UNL1        0.0831
     15 H         140.7712  139.4669  155.9298 H       1  UNL1        0.1189
     16 H         142.4230  139.5282  156.1345 H       1  UNL1        0.1189
     17 C         140.5288  136.8899  156.2802 C.3     1  UNL1        0.0593
     18 C         139.5170  137.4372  155.3176 C.2     1  UNL1        0.0517
     19 O         139.9633  138.2759  154.1568 O.co2   1  UNL1       -0.5491
     20 O         138.0590  137.1459  155.5157 O.co2   1  UNL1       -0.5491
     21 O         143.3464  138.6309  167.3472 O.3     1  UNL1       -0.4344
     22 C         142.4330  139.5503  168.1025 C.ar    1  UNL1        0.2578
     23 N         141.8531  140.7556  167.4235 N.ar    1  UNL1       -0.2070
     24 C         140.9397  141.6750  168.1789 C.ar    1  UNL1        0.1135
     25 C         140.6063  141.3891  169.6131 C.ar    1  UNL1        0.0793
     26 CL        139.6930  142.3085  170.3684 Cl      1  UNL1       -0.0805
     27 C         141.1862  140.1838  170.2920 C.ar    1  UNL1        0.0474
     28 C         142.0995  139.2644  169.5367 C.ar    1  UNL1        0.1942
     29 F         142.6795  138.0591  170.2157 F       1  UNL1       -0.1992
@<TRIPOS>UNITY_ATOM_ATTR
19 1
charge -1
@<TRIPOS>BOND
     1    14    13    1
     2    14    17    1
     3    17    18    1
     4    18    19   ar
     5    18    20   ar
     6    14    12    1
     7    12     7    1
     8     7     8   ar
     9     8     9   ar
    10     9    10   ar
    11    10     1    1
    12     1     2   ar
    13     2     3   ar
    14     3     4   ar
    15     4    21    1
    16    21    22    1
    17    22    23   ar
    18    23    24   ar
    19    24    25   ar
    20    25    26    1
    21    25    27   ar
    22    27    28   ar
    23    28    29    1
    24     4     5   ar
    25     5     6   ar
    26    10    11   ar
    27    11     7   ar
    28     6     1   ar
    29    28    22   ar
    30    13    15    1
    31    13    16    1
