@<TRIPOS>MOLECULE
*****
 31 34 0 0 0
SMALL
GASTEIGER

@<TRIPOS>ATOM
      1 C         140.1705  138.5532  163.4340 C.3     1  UNL1        0.0420
      2 C         140.4886  139.9801  163.7701 C.3     1  UNL1        0.1912
      3 O         140.3888  141.0398  162.7131 O.3     1  UNL1       -0.3500
      4 C         140.7069  142.4667  163.0491 C.3     1  UNL1        0.1145
      5 C         141.0250  143.8935  163.3852 C.3     1  UNL1        0.0463
      6 C         140.9252  144.9531  162.3283 C.3     1  UNL1        0.0746
      7 N         140.5073  144.5859  160.9352 N.3     1  UNL1       -0.2722
      8 C         140.1892  143.1591  160.5992 C.3     1  UNL1        0.0746
      9 C         140.2890  142.0995  161.6561 C.3     1  UNL1        0.0463
     10 C         141.1248  142.8338  164.4422 C.3     1  UNL1        0.1254
     11 N         141.2246  141.7741  165.4992 N.am    1  UNL1       -0.2528
     12 C         140.9065  140.3473  165.1631 C.2     1  UNL1        0.2566
     13 O         141.0063  139.2876  166.2201 O.2     1  UNL1       -0.2719
     14 C         141.6425  142.1413  166.8922 C.ar    1  UNL1        0.0731
     15 C         143.0969  142.1604  167.2585 C.ar    1  UNL1        0.1137
     16 N         143.5148  142.5275  168.6515 N.ar    1  UNL1       -0.2411
     17 C         142.4782  142.8757  169.6783 C.ar    1  UNL1        0.1028
     18 C         141.0237  142.8567  169.3120 C.ar    1  UNL1        0.0918
     19 C         140.6058  142.4895  167.9190 C.ar    1  UNL1        0.0219
     20 C         139.9871  143.2048  170.3388 C.3     1  UNL1        0.4201
     21 F         138.9506  143.5530  171.3656 F       1  UNL1       -0.1658
     22 F         140.2554  144.6635  170.1150 F       1  UNL1       -0.1658
     23 F         139.7189  141.7461  170.5626 F       1  UNL1       -0.1658
     24 C         140.4075  145.6456  159.8782 C.3     1  UNL1        0.0768
     25 C         140.9296  145.3792  158.4975 C.3     1  UNL1        0.0437
     26 C         139.9883  145.3645  157.3296 C.ar    1  UNL1       -0.0208
     27 C         139.3560  144.0766  156.8921 C.ar    1  UNL1       -0.0042
     28 C         138.4148  144.0620  155.7243 C.ar    1  UNL1       -0.0003
     29 C         138.1058  145.3353  154.9940 C.ar    1  UNL1       -0.0000
     30 C         138.7381  146.6232  155.4316 C.ar    1  UNL1       -0.0003
     31 C         139.6793  146.6378  156.5994 C.ar    1  UNL1       -0.0042
@<TRIPOS>BOND
     1     1     2    1
     2     2     3    1
     3     3     4    1
     4     4     5    1
     5     5     6    1
     6     6     7    1
     7     7    24    1
     8    24    25    1
     9    25    26    1
    10    26    27   ar
    11    27    28   ar
    12    28    29   ar
    13    29    30   ar
    14    30    31   ar
    15     7     8    1
    16     8     9    1
    17     4    10    1
    18    10    11    1
    19    11    14    1
    20    14    15   ar
    21    15    16   ar
    22    16    17   ar
    23    17    18   ar
    24    18    20    1
    25    20    21    1
    26    20    22    1
    27    20    23    1
    28    18    19   ar
    29    11    12   am
    30    12    13    2
    31    12     2    1
    32     9     4    1
    33    19    14   ar
    34    31    26   ar
@<TRIPOS>MOLECULE
*****
 31 34 0 0 0
SMALL
GASTEIGER

@<TRIPOS>ATOM
      1 C         143.9273  141.8858  156.9288 C.3     1  UNL1        0.0420
      2 C         143.5941  140.6242  157.6686 C.3     1  UNL1        0.1912
      3 O         143.6688  140.5910  159.1664 O.3     1  UNL1       -0.3500
      4 C         143.3356  139.3294  159.9062 C.3     1  UNL1        0.1145
      5 C         143.0024  138.0678  160.6460 C.3     1  UNL1        0.0463
      6 C         143.0771  138.0347  162.1438 C.3     1  UNL1        0.0746
      7 N         143.4851  139.2631  162.9017 N.3     1  UNL1       -0.2722
      8 C         143.8183  140.5247  162.1619 C.3     1  UNL1        0.0746
      9 C         143.7436  140.5579  160.6642 C.3     1  UNL1        0.0463
     10 C         142.9276  138.1010  159.1483 C.3     1  UNL1        0.1254
     11 N         142.8529  138.1342  157.6505 N.am    1  UNL1       -0.2528
     12 C         143.1861  139.3957  156.9107 C.2     1  UNL1        0.2566
     13 O         143.1114  139.4289  155.4129 O.2     1  UNL1       -0.2719
     14 C         142.4449  136.9057  156.8925 C.ar    1  UNL1        0.0731
     15 C         141.1057  136.8502  156.2191 C.ar    1  UNL1        0.1137
     16 N         140.6978  135.6218  155.4611 N.ar    1  UNL1       -0.2411
     17 C         141.6289  134.4489  155.3766 C.ar    1  UNL1        0.1028
     18 C         142.9681  134.5043  156.0501 C.ar    1  UNL1        0.0918
     19 C         143.3761  135.7328  156.8080 C.ar    1  UNL1        0.0219
     20 C         143.8993  133.3314  155.9656 C.3     1  UNL1        0.4201
     21 F         144.8305  132.1585  155.8811 F       1  UNL1       -0.1658
     22 F         144.4711  133.6888  157.3055 F       1  UNL1       -0.1658
     23 F         143.3276  132.9741  154.6257 F       1  UNL1       -0.1658
     24 C         143.5598  139.2300  164.3995 C.3     1  UNL1        0.0768
     25 C         142.7583  138.2218  165.1683 C.3     1  UNL1        0.0437
     26 C         141.2954  138.4514  165.4076 C.ar    1  UNL1       -0.0208
     27 C         140.8483  139.5674  166.3046 C.ar    1  UNL1       -0.0042
     28 C         139.3854  139.7970  166.5438 C.ar    1  UNL1       -0.0003
     29 C         138.3697  138.9106  165.8861 C.ar    1  UNL1       -0.0000
     30 C         138.8168  137.7946  164.9892 C.ar    1  UNL1       -0.0003
     31 C         140.2797  137.5650  164.7499 C.ar    1  UNL1       -0.0042
@<TRIPOS>BOND
     1     1     2    1
     2     2     3    1
     3     3     4    1
     4     4     5    1
     5     5     6    1
     6     6     7    1
     7     7    24    1
     8    24    25    1
     9    25    26    1
    10    26    27   ar
    11    27    28   ar
    12    28    29   ar
    13    29    30   ar
    14    30    31   ar
    15     7     8    1
    16     8     9    1
    17     4    10    1
    18    10    11    1
    19    11    14    1
    20    14    15   ar
    21    15    16   ar
    22    16    17   ar
    23    17    18   ar
    24    18    20    1
    25    20    21    1
    26    20    22    1
    27    20    23    1
    28    18    19   ar
    29    11    12   am
    30    12    13    2
    31    12     2    1
    32     9     4    1
    33    19    14   ar
    34    31    26   ar
@<TRIPOS>MOLECULE
*****
 31 34 0 0 0
SMALL
GASTEIGER

@<TRIPOS>ATOM
      1 C         138.7092  145.0264  165.6686 C.3     1  UNL1        0.0420
      2 C         139.4169  144.1968  164.6385 C.3     1  UNL1        0.1912
      3 O         139.6707  144.7564  163.2702 O.3     1  UNL1       -0.3500
      4 C         140.3785  143.9269  162.2400 C.3     1  UNL1        0.1145
      5 C         141.0862  143.0974  161.2100 C.3     1  UNL1        0.0463
      6 C         141.3400  143.6569  159.8417 C.3     1  UNL1        0.0746
      7 N         140.8860  145.0460  159.5033 N.3     1  UNL1       -0.2722
      8 C         140.1783  145.8755  160.5333 C.3     1  UNL1        0.0746
      9 C         139.9245  145.3159  161.9017 C.3     1  UNL1        0.0463
     10 C         140.8324  142.5378  162.5784 C.3     1  UNL1        0.1254
     11 N         140.5786  141.9783  163.9468 N.am    1  UNL1       -0.2528
     12 C         139.8709  142.8078  164.9768 C.2     1  UNL1        0.2566
     13 O         139.6171  142.2483  166.3453 O.2     1  UNL1       -0.2719
     14 C         141.0326  140.5892  164.2851 C.ar    1  UNL1        0.0731
     15 C         140.0550  139.4520  164.2531 C.ar    1  UNL1        0.1137
     16 N         140.5089  138.0630  164.5914 N.ar    1  UNL1       -0.2411
     17 C         141.9405  137.8111  164.9618 C.ar    1  UNL1        0.1028
     18 C         142.9181  138.9484  164.9939 C.ar    1  UNL1        0.0918
     19 C         142.4642  140.3374  164.6556 C.ar    1  UNL1        0.0219
     20 C         144.3496  138.6965  165.3643 C.3     1  UNL1        0.4201
     21 F         145.7812  138.4447  165.7348 F       1  UNL1       -0.1658
     22 F         144.7960  139.6036  164.2562 F       1  UNL1       -0.1658
     23 F         143.9033  137.7895  166.4725 F       1  UNL1       -0.1658
     24 C         141.1398  145.6055  158.1349 C.3     1  UNL1        0.0768
     25 C         140.0657  145.5470  157.0896 C.3     1  UNL1        0.0437
     26 C         139.8707  146.6992  156.1491 C.ar    1  UNL1       -0.0208
     27 C         138.9456  147.8206  156.5185 C.ar    1  UNL1       -0.0042
     28 C         138.7507  148.9727  155.5780 C.ar    1  UNL1       -0.0003
     29 C         139.4810  149.0034  154.2681 C.ar    1  UNL1       -0.0000
     30 C         140.4061  147.8820  153.8987 C.ar    1  UNL1       -0.0003
     31 C         140.6010  146.7299  154.8392 C.ar    1  UNL1       -0.0042
@<TRIPOS>BOND
     1     1     2    1
     2     2     3    1
     3     3     4    1
     4     4     5    1
     5     5     6    1
     6     6     7    1
     7     7    24    1
     8    24    25    1
     9    25    26    1
    10    26    27   ar
    11    27    28   ar
    12    28    29   ar
    13    29    30   ar
    14    30    31   ar
    15     7     8    1
    16     8     9    1
    17     4    10    1
    18    10    11    1
    19    11    14    1
    20    14    15   ar
    21    15    16   ar
    22    16    17   ar
    23    17    18   ar
    24    18    20    1
    25    20    21    1
    26    20    22    1
    27    20    23    1
    28    18    19   ar
    29    11    12   am
    30    12    13    2
    31    12     2    1
    32     9     4    1
    33    19    14   ar
    34    31    26   ar
@<TRIPOS>MOLECULE
*****
 31 34 0 0 0
SMALL
GASTEIGER

@<TRIPOS>ATOM
      1 C         144.4164  141.5206  158.4549 C.3     1  UNL1        0.0420
      2 C         143.4574  140.4179  158.7933 C.3     1  UNL1        0.1912
      3 O         142.7391  140.4264  160.1101 O.3     1  UNL1       -0.3500
      4 C         141.7802  139.3237  160.4485 C.3     1  UNL1        0.1145
      5 C         140.8213  138.2209  160.7868 C.3     1  UNL1        0.0463
      6 C         140.1030  138.2294  162.1036 C.3     1  UNL1        0.0746
      7 N         140.3435  139.3407  163.0820 N.3     1  UNL1       -0.2722
      8 C         141.3024  140.4434  162.7437 C.3     1  UNL1        0.0746
      9 C         142.0207  140.4349  161.4269 C.3     1  UNL1        0.0463
     10 C         141.5396  138.2124  159.4701 C.3     1  UNL1        0.1254
     11 N         142.2579  138.2040  158.1532 N.am    1  UNL1       -0.2528
     12 C         143.2168  139.3067  157.8149 C.2     1  UNL1        0.2566
     13 O         143.9352  139.2982  156.4981 O.2     1  UNL1       -0.2719
     14 C         142.0174  137.0928  157.1748 C.ar    1  UNL1        0.0731
     15 C         140.7892  137.1045  156.3137 C.ar    1  UNL1        0.1137
     16 N         140.5486  135.9933  155.3353 N.ar    1  UNL1       -0.2411
     17 C         141.5362  134.8704  155.2179 C.ar    1  UNL1        0.1028
     18 C         142.7644  134.8586  156.0790 C.ar    1  UNL1        0.0918
     19 C         143.0050  135.9698  157.0575 C.ar    1  UNL1        0.0219
     20 C         143.7519  133.7357  155.9617 C.3     1  UNL1        0.4201
     21 F         144.7395  132.6128  155.8443 F       1  UNL1       -0.1658
     22 F         143.2417  133.4310  154.5845 F       1  UNL1       -0.1658
     23 F         144.2621  134.0405  157.3389 F       1  UNL1       -0.1658
     24 C         139.6252  139.3491  164.3988 C.3     1  UNL1        0.0768
     25 C         138.4100  140.2085  164.5847 C.3     1  UNL1        0.0437
     26 C         138.5611  141.6866  164.7913 C.ar    1  UNL1       -0.0208
     27 C         139.6196  142.2103  165.7160 C.ar    1  UNL1       -0.0042
     28 C         139.7707  143.6883  165.9225 C.ar    1  UNL1       -0.0003
     29 C         138.8632  144.6425  165.2044 C.ar    1  UNL1       -0.0000
     30 C         137.8046  144.1188  164.2797 C.ar    1  UNL1       -0.0003
     31 C         137.6536  142.6409  164.0731 C.ar    1  UNL1       -0.0042
@<TRIPOS>BOND
     1     1     2    1
     2     2     3    1
     3     3     4    1
     4     4     5    1
     5     5     6    1
     6     6     7    1
     7     7    24    1
     8    24    25    1
     9    25    26    1
    10    26    27   ar
    11    27    28   ar
    12    28    29   ar
    13    29    30   ar
    14    30    31   ar
    15     7     8    1
    16     8     9    1
    17     4    10    1
    18    10    11    1
    19    11    14    1
    20    14    15   ar
    21    15    16   ar
    22    16    17   ar
    23    17    18   ar
    24    18    20    1
    25    20    21    1
    26    20    22    1
    27    20    23    1
    28    18    19   ar
    29    11    12   am
    30    12    13    2
    31    12     2    1
    32     9     4    1
    33    19    14   ar
    34    31    26   ar
@<TRIPOS>MOLECULE
*****
 31 34 0 0 0
SMALL
GASTEIGER

@<TRIPOS>ATOM
      1 C         138.0915  140.4730  160.4201 C.3     1  UNL1        0.0420
      2 C         139.4542  139.8820  160.2103 C.3     1  UNL1        0.1912
      3 O         139.7219  139.0210  159.0116 O.3     1  UNL1       -0.3500
      4 C         141.0846  138.4301  158.8018 C.3     1  UNL1        0.1145
      5 C         142.4472  137.8392  158.5921 C.3     1  UNL1        0.0463
      6 C         142.7149  136.9781  157.3934 C.3     1  UNL1        0.0746
      7 N         141.6199  136.7080  156.4044 N.3     1  UNL1       -0.2722
      8 C         140.2572  137.2989  156.6142 C.3     1  UNL1        0.0746
      9 C         139.9896  138.1599  157.8129 C.3     1  UNL1        0.0463
     10 C         142.1796  138.7002  159.7908 C.3     1  UNL1        0.1254
     11 N         141.9119  139.5613  160.9895 N.am    1  UNL1       -0.2528
     12 C         140.5492  140.1522  161.1993 C.2     1  UNL1        0.2566
     13 O         140.2815  141.0133  162.3980 O.2     1  UNL1       -0.2719
     14 C         143.0068  139.8315  161.9785 C.ar    1  UNL1        0.0731
     15 C         144.0867  140.8195  161.6505 C.ar    1  UNL1        0.1137
     16 N         145.1817  141.0896  162.6394 N.ar    1  UNL1       -0.2411
     17 C         145.1968  140.3718  163.9564 C.ar    1  UNL1        0.1028
     18 C         144.1169  139.3837  164.2845 C.ar    1  UNL1        0.0918
     19 C         143.0219  139.1136  163.2955 C.ar    1  UNL1        0.0219
     20 C         144.1320  138.6659  165.6014 C.3     1  UNL1        0.4201
     21 F         144.1471  137.9480  166.9184 F       1  UNL1       -0.1658
     22 F         142.6413  138.8045  165.6941 F       1  UNL1       -0.1658
     23 F         145.6226  138.5272  165.5088 F       1  UNL1       -0.1658
     24 C         141.8876  135.8469  155.2057 C.3     1  UNL1        0.0768
     25 C         141.5832  134.3789  155.2537 C.3     1  UNL1        0.0437
     26 C         142.6623  133.4005  155.6122 C.ar    1  UNL1       -0.0208
     27 C         143.3794  133.5223  156.9240 C.ar    1  UNL1       -0.0042
     28 C         144.4584  132.5439  157.2824 C.ar    1  UNL1       -0.0003
     29 C         144.8203  131.4438  156.3291 C.ar    1  UNL1       -0.0000
     30 C         144.1032  131.3221  155.0173 C.ar    1  UNL1       -0.0003
     31 C         143.0241  132.3004  154.6589 C.ar    1  UNL1       -0.0042
@<TRIPOS>BOND
     1     1     2    1
     2     2     3    1
     3     3     4    1
     4     4     5    1
     5     5     6    1
     6     6     7    1
     7     7    24    1
     8    24    25    1
     9    25    26    1
    10    26    27   ar
    11    27    28   ar
    12    28    29   ar
    13    29    30   ar
    14    30    31   ar
    15     7     8    1
    16     8     9    1
    17     4    10    1
    18    10    11    1
    19    11    14    1
    20    14    15   ar
    21    15    16   ar
    22    16    17   ar
    23    17    18   ar
    24    18    20    1
    25    20    21    1
    26    20    22    1
    27    20    23    1
    28    18    19   ar
    29    11    12   am
    30    12    13    2
    31    12     2    1
    32     9     4    1
    33    19    14   ar
    34    31    26   ar
@<TRIPOS>MOLECULE
*****
 31 34 0 0 0
SMALL
GASTEIGER

@<TRIPOS>ATOM
      1 C         142.6174  145.1776  163.6963 C.3     1  UNL1        0.0420
      2 C         141.9174  144.1070  162.9127 C.3     1  UNL1        0.1912
      3 O         141.3990  144.4023  161.5365 O.3     1  UNL1       -0.3500
      4 C         140.6990  143.3317  160.7529 C.3     1  UNL1        0.1145
      5 C         139.9991  142.2612  159.9694 C.3     1  UNL1        0.0463
      6 C         139.4806  142.5565  158.5932 C.3     1  UNL1        0.0746
      7 N         139.6620  143.9225  158.0006 N.3     1  UNL1       -0.2722
      8 C         140.3619  144.9931  158.7841 C.3     1  UNL1        0.0746
      9 C         140.8804  144.6977  160.1603 C.3     1  UNL1        0.0463
     10 C         140.5176  141.9658  161.3456 C.3     1  UNL1        0.1254
     11 N         141.0361  141.6704  162.7218 N.am    1  UNL1       -0.2528
     12 C         141.7360  142.7410  163.5053 C.2     1  UNL1        0.2566
     13 O         142.2546  142.4456  164.8816 O.2     1  UNL1       -0.2719
     14 C         140.8547  140.3044  163.3144 C.ar    1  UNL1        0.0731
     15 C         141.7972  139.1966  162.9478 C.ar    1  UNL1        0.1137
     16 N         141.6158  137.8306  163.5404 N.ar    1  UNL1       -0.2411
     17 C         140.4919  137.5725  164.4997 C.ar    1  UNL1        0.1028
     18 C         139.5494  138.6804  164.8664 C.ar    1  UNL1        0.0918
     19 C         139.7308  140.0463  164.2738 C.ar    1  UNL1        0.0219
     20 C         138.4256  138.4222  165.8257 C.3     1  UNL1        0.4201
     21 F         137.3018  138.1641  166.7850 F       1  UNL1       -0.1658
     22 F         138.5131  136.9537  165.5331 F       1  UNL1       -0.1658
     23 F         138.3380  139.8908  166.1183 F       1  UNL1       -0.1658
     24 C         139.1435  144.2179  156.6244 C.3     1  UNL1        0.0768
     25 C         140.0611  144.7872  155.5833 C.3     1  UNL1        0.0437
     26 C         139.9114  146.2160  155.1520 C.ar    1  UNL1       -0.0208
     27 C         139.0593  147.1557  155.9525 C.ar    1  UNL1       -0.0042
     28 C         138.9096  148.5845  155.5212 C.ar    1  UNL1       -0.0003
     29 C         139.6119  149.0736  154.2893 C.ar    1  UNL1       -0.0000
     30 C         140.4639  148.1339  153.4887 C.ar    1  UNL1       -0.0003
     31 C         140.6137  146.7051  153.9201 C.ar    1  UNL1       -0.0042
@<TRIPOS>BOND
     1     1     2    1
     2     2     3    1
     3     3     4    1
     4     4     5    1
     5     5     6    1
     6     6     7    1
     7     7    24    1
     8    24    25    1
     9    25    26    1
    10    26    27   ar
    11    27    28   ar
    12    28    29   ar
    13    29    30   ar
    14    30    31   ar
    15     7     8    1
    16     8     9    1
    17     4    10    1
    18    10    11    1
    19    11    14    1
    20    14    15   ar
    21    15    16   ar
    22    16    17   ar
    23    17    18   ar
    24    18    20    1
    25    20    21    1
    26    20    22    1
    27    20    23    1
    28    18    19   ar
    29    11    12   am
    30    12    13    2
    31    12     2    1
    32     9     4    1
    33    19    14   ar
    34    31    26   ar
@<TRIPOS>MOLECULE
*****
 31 34 0 0 0
SMALL
GASTEIGER

@<TRIPOS>ATOM
      1 C         141.0209  145.5938  158.5091 C.3     1  UNL1        0.0420
      2 C         141.9828  144.5503  158.9949 C.3     1  UNL1        0.1912
      3 O         142.1871  144.3456  160.4667 O.3     1  UNL1       -0.3500
      4 C         143.1490  143.3021  160.9524 C.3     1  UNL1        0.1145
      5 C         144.1109  142.2586  161.4381 C.3     1  UNL1        0.0463
      6 C         144.3153  142.0540  162.9099 C.3     1  UNL1        0.0746
      7 N         143.5577  142.8928  163.8961 N.3     1  UNL1       -0.2722
      8 C         142.5958  143.9362  163.4104 C.3     1  UNL1        0.0746
      9 C         142.3915  144.1409  161.9386 C.3     1  UNL1        0.0463
     10 C         143.9066  142.4633  159.9662 C.3     1  UNL1        0.1254
     11 N         143.7022  142.6680  158.4943 N.am    1  UNL1       -0.2528
     12 C         142.7403  143.7115  158.0087 C.2     1  UNL1        0.2566
     13 O         142.5360  143.9162  156.5368 O.2     1  UNL1       -0.2719
     14 C         144.4598  141.8292  157.5082 C.ar    1  UNL1        0.0731
     15 C         143.9531  140.4672  157.1366 C.ar    1  UNL1        0.1137
     16 N         144.7106  139.6284  156.1505 N.ar    1  UNL1       -0.2411
     17 C         145.9749  140.1516  155.5358 C.ar    1  UNL1        0.1028
     18 C         146.4817  141.5137  155.9073 C.ar    1  UNL1        0.0918
     19 C         145.7241  142.3525  156.8935 C.ar    1  UNL1        0.0219
     20 C         147.7459  142.0370  155.2927 C.3     1  UNL1        0.4201
     21 F         149.0102  142.5602  154.6781 F       1  UNL1       -0.1658
     22 F         147.1819  141.7926  153.9245 F       1  UNL1       -0.1658
     23 F         148.3100  142.2814  156.6609 F       1  UNL1       -0.1658
     24 C         143.7621  142.6880  165.3680 C.3     1  UNL1        0.0768
     25 C         142.5778  142.5298  166.2747 C.3     1  UNL1        0.0437
     26 C         142.7121  141.7634  167.5572 C.ar    1  UNL1       -0.0208
     27 C         143.2645  142.4361  168.7787 C.ar    1  UNL1       -0.0042
     28 C         143.3989  141.6697  170.0610 C.ar    1  UNL1       -0.0003
     29 C         142.9807  140.2304  170.1218 C.ar    1  UNL1       -0.0000
     30 C         142.4283  139.5576  168.9003 C.ar    1  UNL1       -0.0003
     31 C         142.2940  140.3241  167.6180 C.ar    1  UNL1       -0.0042
@<TRIPOS>BOND
     1     1     2    1
     2     2     3    1
     3     3     4    1
     4     4     5    1
     5     5     6    1
     6     6     7    1
     7     7    24    1
     8    24    25    1
     9    25    26    1
    10    26    27   ar
    11    27    28   ar
    12    28    29   ar
    13    29    30   ar
    14    30    31   ar
    15     7     8    1
    16     8     9    1
    17     4    10    1
    18    10    11    1
    19    11    14    1
    20    14    15   ar
    21    15    16   ar
    22    16    17   ar
    23    17    18   ar
    24    18    20    1
    25    20    21    1
    26    20    22    1
    27    20    23    1
    28    18    19   ar
    29    11    12   am
    30    12    13    2
    31    12     2    1
    32     9     4    1
    33    19    14   ar
    34    31    26   ar
@<TRIPOS>MOLECULE
*****
 31 34 0 0 0
SMALL
GASTEIGER

@<TRIPOS>ATOM
      1 C         138.1804  138.3826  162.1080 C.3     1  UNL1        0.0420
      2 C         139.5055  138.6923  161.4769 C.3     1  UNL1        0.1912
      3 O         139.7397  138.3740  160.0299 O.3     1  UNL1       -0.3500
      4 C         141.0648  138.6837  159.3988 C.3     1  UNL1        0.1145
      5 C         142.3899  138.9934  158.7677 C.3     1  UNL1        0.0463
      6 C         142.6241  138.6752  157.3207 C.3     1  UNL1        0.0746
      7 N         141.5333  138.0473  156.5048 N.3     1  UNL1       -0.2722
      8 C         140.2082  137.7376  157.1358 C.3     1  UNL1        0.0746
      9 C         139.9740  138.0558  158.5828 C.3     1  UNL1        0.0463
     10 C         142.1557  139.3117  160.2147 C.3     1  UNL1        0.1254
     11 N         141.9214  139.6299  161.6618 N.am    1  UNL1       -0.2528
     12 C         140.5963  139.3202  162.2928 C.2     1  UNL1        0.2566
     13 O         140.3621  139.6384  163.7399 O.2     1  UNL1       -0.2719
     14 C         143.0122  140.2578  162.4777 C.ar    1  UNL1        0.0731
     15 C         144.1047  139.4054  163.0519 C.ar    1  UNL1        0.1137
     16 N         145.1956  140.0333  163.8679 N.ar    1  UNL1       -0.2411
     17 C         145.1939  141.5137  164.1096 C.ar    1  UNL1        0.1028
     18 C         144.1014  142.3662  163.5354 C.ar    1  UNL1        0.0918
     19 C         143.0105  141.7383  162.7194 C.ar    1  UNL1        0.0219
     20 C         144.0997  143.8466  163.7771 C.3     1  UNL1        0.4201
     21 F         144.0981  145.3269  164.0188 F       1  UNL1       -0.1658
     22 F         144.7342  143.6282  165.1186 F       1  UNL1       -0.1658
     23 F         143.4653  144.0649  162.4356 F       1  UNL1       -0.1658
     24 C         141.7675  137.7290  155.0577 C.3     1  UNL1        0.0768
     25 C         142.7656  136.6774  154.6731 C.3     1  UNL1        0.0437
     26 C         142.7768  135.3576  155.3860 C.ar    1  UNL1       -0.0208
     27 C         143.7250  135.1287  156.5254 C.ar    1  UNL1       -0.0042
     28 C         143.7362  133.8090  157.2382 C.ar    1  UNL1       -0.0003
     29 C         142.7993  132.7181  156.8115 C.ar    1  UNL1       -0.0000
     30 C         141.8510  132.9470  155.6721 C.ar    1  UNL1       -0.0003
     31 C         141.8398  134.2667  154.9593 C.ar    1  UNL1       -0.0042
@<TRIPOS>BOND
     1     1     2    1
     2     2     3    1
     3     3     4    1
     4     4     5    1
     5     5     6    1
     6     6     7    1
     7     7    24    1
     8    24    25    1
     9    25    26    1
    10    26    27   ar
    11    27    28   ar
    12    28    29   ar
    13    29    30   ar
    14    30    31   ar
    15     7     8    1
    16     8     9    1
    17     4    10    1
    18    10    11    1
    19    11    14    1
    20    14    15   ar
    21    15    16   ar
    22    16    17   ar
    23    17    18   ar
    24    18    20    1
    25    20    21    1
    26    20    22    1
    27    20    23    1
    28    18    19   ar
    29    11    12   am
    30    12    13    2
    31    12     2    1
    32     9     4    1
    33    19    14   ar
    34    31    26   ar
@<TRIPOS>MOLECULE
*****
 31 34 0 0 0
SMALL
GASTEIGER

@<TRIPOS>ATOM
      1 C         142.1020  145.8095  157.5621 C.3     1  UNL1        0.0420
      2 C         141.0592  144.8281  158.0087 C.3     1  UNL1        0.1912
      3 O         140.0703  144.2831  157.0212 O.3     1  UNL1       -0.3500
      4 C         139.0275  143.3017  157.4678 C.3     1  UNL1        0.1145
      5 C         137.9847  142.3203  157.9145 C.3     1  UNL1        0.0463
      6 C         136.9959  141.7753  156.9270 C.3     1  UNL1        0.0746
      7 N         137.0498  142.2117  155.4929 N.3     1  UNL1       -0.2722
      8 C         138.0926  143.1931  155.0463 C.3     1  UNL1        0.0746
      9 C         139.0814  143.7381  156.0337 C.3     1  UNL1        0.0463
     10 C         138.9736  142.8653  158.9019 C.3     1  UNL1        0.1254
     11 N         139.9625  143.4103  159.8894 N.am    1  UNL1       -0.2528
     12 C         141.0052  144.3917  159.4428 C.2     1  UNL1        0.2566
     13 O         141.9942  144.9367  160.4303 O.2     1  UNL1       -0.2719
     14 C         139.9086  142.9739  161.3235 C.ar    1  UNL1        0.0731
     15 C         140.4192  141.6189  161.7148 C.ar    1  UNL1        0.1137
     16 N         140.3653  141.1825  163.1489 N.ar    1  UNL1       -0.2411
     17 C         139.8008  142.1010  164.1917 C.ar    1  UNL1        0.1028
     18 C         139.2901  143.4561  163.8004 C.ar    1  UNL1        0.0918
     19 C         139.3440  143.8925  162.3663 C.ar    1  UNL1        0.0219
     20 C         138.7255  144.3747  164.8432 C.3     1  UNL1        0.4201
     21 F         138.1610  145.2933  165.8860 F       1  UNL1       -0.1658
     22 F         140.0459  144.3783  165.5549 F       1  UNL1       -0.1658
     23 F         137.4051  144.3711  164.1316 F       1  UNL1       -0.1658
     24 C         136.0609  141.6667  154.5054 C.3     1  UNL1        0.0768
     25 C         135.4116  140.3369  154.7503 C.3     1  UNL1        0.0437
     26 C         134.0307  140.2724  155.3327 C.ar    1  UNL1       -0.0208
     27 C         133.6377  139.1166  156.2043 C.ar    1  UNL1       -0.0042
     28 C         132.2569  139.0521  156.7867 C.ar    1  UNL1       -0.0003
     29 C         131.2692  140.1434  156.4975 C.ar    1  UNL1       -0.0000
     30 C         131.6623  141.2992  155.6260 C.ar    1  UNL1       -0.0003
     31 C         133.0431  141.3636  155.0436 C.ar    1  UNL1       -0.0042
@<TRIPOS>BOND
     1     1     2    1
     2     2     3    1
     3     3     4    1
     4     4     5    1
     5     5     6    1
     6     6     7    1
     7     7    24    1
     8    24    25    1
     9    25    26    1
    10    26    27   ar
    11    27    28   ar
    12    28    29   ar
    13    29    30   ar
    14    30    31   ar
    15     7     8    1
    16     8     9    1
    17     4    10    1
    18    10    11    1
    19    11    14    1
    20    14    15   ar
    21    15    16   ar
    22    16    17   ar
    23    17    18   ar
    24    18    20    1
    25    20    21    1
    26    20    22    1
    27    20    23    1
    28    18    19   ar
    29    11    12   am
    30    12    13    2
    31    12     2    1
    32     9     4    1
    33    19    14   ar
    34    31    26   ar
