@<TRIPOS>MOLECULE
*****
 32 35 0 0 0
SMALL
GASTEIGER

@<TRIPOS>ATOM
      1 C         142.0466  145.2162  158.4709 C.ar    1  UNL1        0.2181
      2 N         142.9601  144.0448  158.2634 N.ar    1  UNL1       -0.1986
      3 C         143.2543  143.1123  159.4009 C.ar    1  UNL1        0.1388
      4 C         142.6351  143.3514  160.7460 C.ar    1  UNL1        0.0786
      5 S         142.7389  142.6086  162.0451 S.2     1  UNL1       -0.0826
      6 C         141.8896  143.3211  163.0555 C.ar    1  UNL1        0.0311
      7 C         141.2608  144.5042  162.3809 C.ar    1  UNL1        0.0263
      8 C         141.7216  144.5229  160.9536 C.ar    1  UNL1        0.0933
      9 N         141.4274  145.4553  159.8160 N.ar    1  UNL1       -0.2132
     10 C         141.7019  142.9209  164.4889 C.ar    1  UNL1        0.0061
     11 C         140.3300  142.9257  165.0955 C.ar    1  UNL1        0.0018
     12 C         140.1424  142.5254  166.5289 C.ar    1  UNL1        0.0145
     13 C         141.3266  142.1203  167.3556 C.ar    1  UNL1        0.0480
     14 C         142.6985  142.1154  166.7490 C.ar    1  UNL1        0.0145
     15 C         142.8861  142.5157  165.3156 C.ar    1  UNL1        0.0018
     16 N         141.1389  141.7200  168.7890 N.pl3   1  UNL1       -0.3028
     17 C         140.1660  140.6347  169.1434 C.3     1  UNL1        0.1231
     18 C         139.9783  140.2345  170.5768 C.3     1  UNL1        0.1636
     19 O         140.7637  140.9195  171.6557 O.3     1  UNL1       -0.3501
     20 C         141.7366  142.0047  171.3013 C.3     1  UNL1        0.1636
     21 C         141.9242  142.4050  169.8679 C.3     1  UNL1        0.1231
     22 C         140.3764  146.1945  156.7379 C.3     1  UNL1        0.1108
     23 N         141.7524  146.1487  157.3334 N.pl3   1  UNL1       -0.3013
     24 H         142.4623  146.7307  156.9776 H       1  UNL1        0.1497
     25 N         144.1678  141.9407  159.1933 N.pl3   1  UNL1       -0.3176
     26 H         145.1177  142.0068  159.4435 H       1  UNL1        0.1482
     27 C         143.6341  140.6686  158.6044 C.3     1  UNL1        0.0896
     28 C         143.3264  139.5013  159.4948 C.3     1  UNL1        0.0385
     29 C         144.1449  139.2633  160.7290 C.3     1  UNL1        0.0739
     30 N         143.4824  138.7890  161.9885 N.3     1  UNL1       -0.2703
     31 C         142.2630  137.9188  161.9127 C.3     1  UNL1        0.0897
     32 C         144.0393  139.1852  163.3238 C.3     1  UNL1        0.0897
@<TRIPOS>BOND
     1    22    23    1
     2    23     1    1
     3     1     2   ar
     4     2     3   ar
     5     3    25    1
     6    25    27    1
     7    27    28    1
     8    28    29    1
     9    29    30    1
    10    30    31    1
    11    30    32    1
    12     3     4   ar
    13     4     5   ar
    14     5     6   ar
    15     6    10    1
    16    10    11   ar
    17    11    12   ar
    18    12    13   ar
    19    13    16    1
    20    16    17    1
    21    17    18    1
    22    18    19    1
    23    19    20    1
    24    20    21    1
    25    13    14   ar
    26    14    15   ar
    27     6     7   ar
    28     7     8   ar
    29     8     9   ar
    30     9     1   ar
    31     8     4   ar
    32    15    10   ar
    33    21    16    1
    34    23    24    1
    35    25    26    1
@<TRIPOS>MOLECULE
*****
 32 35 0 0 0
SMALL
GASTEIGER

@<TRIPOS>ATOM
      1 C         141.1484  145.4050  158.2827 C.ar    1  UNL1        0.2181
      2 N         139.9609  144.4999  158.1393 N.ar    1  UNL1       -0.1986
      3 C         139.4985  143.6787  159.3063 C.ar    1  UNL1        0.1388
      4 C         140.2238  143.7626  160.6167 C.ar    1  UNL1        0.0786
      5 S         140.0011  143.0780  161.9326 S.2     1  UNL1       -0.0826
      6 C         141.0511  143.5600  162.8893 C.ar    1  UNL1        0.0311
      7 C         141.9226  144.5425  162.1646 C.ar    1  UNL1        0.0263
      8 C         141.4113  144.6677  160.7600 C.ar    1  UNL1        0.0933
      9 N         141.8736  145.4889  159.5930 N.ar    1  UNL1       -0.2132
     10 C         141.2029  143.1343  164.3196 C.ar    1  UNL1        0.0061
     11 C         142.4896  142.5214  164.7871 C.ar    1  UNL1        0.0018
     12 C         142.6413  142.0957  166.2175 C.ar    1  UNL1        0.0145
     13 C         141.5064  142.2829  167.1802 C.ar    1  UNL1        0.0480
     14 C         140.2197  142.8959  166.7127 C.ar    1  UNL1        0.0145
     15 C         140.0680  143.3216  165.2823 C.ar    1  UNL1        0.0018
     16 N         141.6582  141.8572  168.6105 N.pl3   1  UNL1       -0.3028
     17 C         140.7526  142.4259  169.6624 C.3     1  UNL1        0.1231
     18 C         140.9045  142.0002  171.0927 C.3     1  UNL1        0.1636
     19 O         141.9620  141.0058  171.4710 O.3     1  UNL1       -0.3501
     20 C         142.8675  140.4372  170.4191 C.3     1  UNL1        0.1636
     21 C         142.7157  140.8629  168.9888 C.3     1  UNL1        0.1231
     22 C         140.7467  146.3489  155.8957 C.3     1  UNL1        0.1108
     23 N         141.6107  146.2263  157.1157 N.pl3   1  UNL1       -0.3013
     24 H         142.4813  146.6847  157.1505 H       1  UNL1        0.1497
     25 N         138.3109  142.7736  159.1629 N.pl3   1  UNL1       -0.3176
     26 H         137.4043  143.1217  159.3246 H       1  UNL1        0.1482
     27 C         138.5047  141.3381  158.7731 C.3     1  UNL1        0.0896
     28 C         138.7782  140.3055  159.8262 C.3     1  UNL1        0.0385
     29 C         137.6620  139.8066  160.6952 C.3     1  UNL1        0.0739
     30 N         137.9383  139.4036  162.1134 N.3     1  UNL1       -0.2703
     31 C         137.7465  140.3923  163.2250 C.3     1  UNL1        0.0897
     32 C         138.4064  138.0119  162.4199 C.3     1  UNL1        0.0897
@<TRIPOS>BOND
     1    22    23    1
     2    23     1    1
     3     1     2   ar
     4     2     3   ar
     5     3    25    1
     6    25    27    1
     7    27    28    1
     8    28    29    1
     9    29    30    1
    10    30    31    1
    11    30    32    1
    12     3     4   ar
    13     4     5   ar
    14     5     6   ar
    15     6    10    1
    16    10    11   ar
    17    11    12   ar
    18    12    13   ar
    19    13    16    1
    20    16    17    1
    21    17    18    1
    22    18    19    1
    23    19    20    1
    24    20    21    1
    25    13    14   ar
    26    14    15   ar
    27     6     7   ar
    28     7     8   ar
    29     8     9   ar
    30     9     1   ar
    31     8     4   ar
    32    15    10   ar
    33    21    16    1
    34    23    24    1
    35    25    26    1
@<TRIPOS>MOLECULE
*****
 32 35 0 0 0
SMALL
GASTEIGER

@<TRIPOS>ATOM
      1 C         142.0368  145.2492  158.4328 C.ar    1  UNL1        0.2181
      2 N         143.0016  144.1171  158.2402 N.ar    1  UNL1       -0.1986
      3 C         143.3218  143.2016  159.3846 C.ar    1  UNL1        0.1388
      4 C         142.6771  143.4185  160.7215 C.ar    1  UNL1        0.0786
      5 S         142.7971  142.6850  162.0244 S.2     1  UNL1       -0.0826
      6 C         141.9064  143.3640  163.0222 C.ar    1  UNL1        0.0311
      7 C         141.2359  144.5171  162.3360 C.ar    1  UNL1        0.0263
      8 C         141.7123  144.5508  160.9140 C.ar    1  UNL1        0.0933
      9 N         141.3921  145.4661  159.7696 N.ar    1  UNL1       -0.2132
     10 C         141.7190  142.9608  164.4548 C.ar    1  UNL1        0.0061
     11 C         140.3681  143.0774  165.0962 C.ar    1  UNL1        0.0018
     12 C         140.1808  142.6741  166.5288 C.ar    1  UNL1        0.0145
     13 C         141.3443  142.1542  167.3200 C.ar    1  UNL1        0.0480
     14 C         142.6952  142.0376  166.6785 C.ar    1  UNL1        0.0145
     15 C         142.8825  142.4409  165.2459 C.ar    1  UNL1        0.0018
     16 N         141.1569  141.7509  168.7526 N.pl3   1  UNL1       -0.3028
     17 C         140.2127  140.6388  169.1013 C.3     1  UNL1        0.1231
     18 C         140.0253  140.2355  170.5339 C.3     1  UNL1        0.1636
     19 O         140.7822  140.9445  171.6177 O.3     1  UNL1       -0.3501
     20 C         141.7264  142.0566  171.2689 C.3     1  UNL1        0.1636
     21 C         141.9137  142.4598  169.8363 C.3     1  UNL1        0.1231
     22 C         140.3183  146.2308  156.7495 C.3     1  UNL1        0.1108
     23 N         141.7166  146.1647  157.2884 N.pl3   1  UNL1       -0.3013
     24 H         142.4242  146.7221  156.8910 H       1  UNL1        0.1497
     25 N         144.2866  142.0693  159.1920 N.pl3   1  UNL1       -0.3176
     26 H         145.2496  142.2128  159.3383 H       1  UNL1        0.1482
     27 C         143.7844  140.7184  158.7763 C.3     1  UNL1        0.0896
     28 C         143.8139  140.3196  157.3306 C.3     1  UNL1        0.0385
     29 C         145.0588  140.5284  156.5203 C.3     1  UNL1        0.0739
     30 N         145.4916  141.9173  156.1546 N.3     1  UNL1       -0.2703
     31 C         144.6227  142.7664  155.2749 C.3     1  UNL1        0.0897
     32 C         146.7933  142.4570  156.6687 C.3     1  UNL1        0.0897
@<TRIPOS>BOND
     1    22    23    1
     2    23     1    1
     3     1     2   ar
     4     2     3   ar
     5     3    25    1
     6    25    27    1
     7    27    28    1
     8    28    29    1
     9    29    30    1
    10    30    31    1
    11    30    32    1
    12     3     4   ar
    13     4     5   ar
    14     5     6   ar
    15     6    10    1
    16    10    11   ar
    17    11    12   ar
    18    12    13   ar
    19    13    16    1
    20    16    17    1
    21    17    18    1
    22    18    19    1
    23    19    20    1
    24    20    21    1
    25    13    14   ar
    26    14    15   ar
    27     6     7   ar
    28     7     8   ar
    29     8     9   ar
    30     9     1   ar
    31     8     4   ar
    32    15    10   ar
    33    21    16    1
    34    23    24    1
    35    25    26    1
@<TRIPOS>MOLECULE
*****
 32 35 0 0 0
SMALL
GASTEIGER

@<TRIPOS>ATOM
      1 C         144.1074  140.5490  158.1840 C.ar    1  UNL1        0.2181
      2 N         143.6823  141.9858  158.1157 N.ar    1  UNL1       -0.1986
      3 C         143.1786  142.6784  159.3473 C.ar    1  UNL1        0.1388
      4 C         143.1002  141.9340  160.6472 C.ar    1  UNL1        0.0786
      5 S         142.6491  142.3496  162.0161 S.2     1  UNL1       -0.0826
      6 C         142.7956  141.1696  162.9304 C.ar    1  UNL1        0.0311
      7 C         143.3371  140.0247  162.1267 C.ar    1  UNL1        0.0263
      8 C         143.5254  140.4972  160.7155 C.ar    1  UNL1        0.0933
      9 N         144.0290  139.8047  159.4839 N.ar    1  UNL1       -0.2132
     10 C         142.4596  141.1397  164.3920 C.ar    1  UNL1        0.0061
     11 C         143.2046  142.0201  165.3511 C.ar    1  UNL1        0.0018
     12 C         142.8684  141.9901  166.8126 C.ar    1  UNL1        0.0145
     13 C         141.7874  141.0797  167.3151 C.ar    1  UNL1        0.0480
     14 C         141.0424  140.1993  166.3561 C.ar    1  UNL1        0.0145
     15 C         141.3785  140.2293  164.8945 C.ar    1  UNL1        0.0018
     16 N         141.4513  141.0498  168.7767 N.pl3   1  UNL1       -0.3028
     17 C         140.4544  140.0570  169.2969 C.3     1  UNL1        0.1231
     18 C         140.1183  140.0271  170.7585 C.3     1  UNL1        0.1636
     19 O         140.7793  140.9900  171.6998 O.3     1  UNL1       -0.3501
     20 C         141.7762  141.9827  171.1796 C.3     1  UNL1        0.1636
     21 C         142.1122  142.0126  169.7180 C.3     1  UNL1        0.1231
     22 C         145.5005  140.5880  155.9914 C.3     1  UNL1        0.1108
     23 N         144.6111  139.8564  156.9524 N.pl3   1  UNL1       -0.3013
     24 H         144.3579  138.9218  156.7749 H       1  UNL1        0.1497
     25 N         142.7534  144.1153  159.2788 N.pl3   1  UNL1       -0.3176
     26 H         143.2036  144.7890  159.8380 H       1  UNL1        0.1482
     27 C         141.6423  144.5256  158.3586 C.3     1  UNL1        0.0896
     28 C         140.4088  145.1733  158.9144 C.3     1  UNL1        0.0385
     29 C         140.2899  145.4180  160.3895 C.3     1  UNL1        0.0739
     30 N         139.4646  144.4970  161.2385 N.3     1  UNL1       -0.2703
     31 C         139.0028  144.9398  162.5951 C.3     1  UNL1        0.0897
     32 C         139.1012  143.1331  160.7307 C.3     1  UNL1        0.0897
@<TRIPOS>BOND
     1    22    23    1
     2    23     1    1
     3     1     2   ar
     4     2     3   ar
     5     3    25    1
     6    25    27    1
     7    27    28    1
     8    28    29    1
     9    29    30    1
    10    30    31    1
    11    30    32    1
    12     3     4   ar
    13     4     5   ar
    14     5     6   ar
    15     6    10    1
    16    10    11   ar
    17    11    12   ar
    18    12    13   ar
    19    13    16    1
    20    16    17    1
    21    17    18    1
    22    18    19    1
    23    19    20    1
    24    20    21    1
    25    13    14   ar
    26    14    15   ar
    27     6     7   ar
    28     7     8   ar
    29     8     9   ar
    30     9     1   ar
    31     8     4   ar
    32    15    10   ar
    33    21    16    1
    34    23    24    1
    35    25    26    1
@<TRIPOS>MOLECULE
*****
 32 35 0 0 0
SMALL
GASTEIGER

@<TRIPOS>ATOM
      1 C         137.7448  140.8736  158.0566 C.ar    1  UNL1        0.2181
      2 N         138.3804  142.2294  157.9696 N.ar    1  UNL1       -0.1986
      3 C         138.9574  142.8675  159.1985 C.ar    1  UNL1        0.1388
      4 C         138.8987  142.1497  160.5142 C.ar    1  UNL1        0.0786
      5 S         139.3797  142.5250  161.8846 S.2     1  UNL1       -0.0826
      6 C         139.0413  141.4010  162.8185 C.ar    1  UNL1        0.0311
      7 C         138.3511  140.3311  162.0253 C.ar    1  UNL1        0.0263
      8 C         138.2630  140.7939  160.6012 C.ar    1  UNL1        0.0933
      9 N         137.6860  140.1558  159.3724 N.ar    1  UNL1       -0.2132
     10 C         139.3405  141.3550  164.2876 C.ar    1  UNL1        0.0061
     11 C         139.9776  142.5344  164.9606 C.ar    1  UNL1        0.0018
     12 C         140.2768  142.4883  166.4298 C.ar    1  UNL1        0.0145
     13 C         139.9388  141.2628  167.2259 C.ar    1  UNL1        0.0480
     14 C         139.3017  140.0833  166.5530 C.ar    1  UNL1        0.0145
     15 C         139.0025  140.1295  165.0838 C.ar    1  UNL1        0.0018
     16 N         140.2380  141.2168  168.6951 N.pl3   1  UNL1       -0.3028
     17 C         139.7028  140.0949  169.5347 C.3     1  UNL1        0.1231
     18 C         140.0020  140.0488  171.0038 C.3     1  UNL1        0.1636
     19 O         140.8365  141.1248  171.6333 O.3     1  UNL1       -0.3501
     20 C         141.3716  142.2466  170.7937 C.3     1  UNL1        0.1636
     21 C         141.0724  142.2927  169.3245 C.3     1  UNL1        0.1231
     22 C         136.0171  140.8833  156.1162 C.3     1  UNL1        0.1108
     23 N         137.1678  140.2355  156.8278 N.pl3   1  UNL1       -0.3013
     24 H         137.5442  139.3915  156.4884 H       1  UNL1        0.1497
     25 N         139.5931  144.2234  159.1114 N.pl3   1  UNL1       -0.3176
     26 H         139.0303  145.0311  159.1004 H       1  UNL1        0.1482
     27 C         141.0862  144.3486  159.0412 C.3     1  UNL1        0.0896
     28 C         141.7549  144.6203  157.7262 C.3     1  UNL1        0.0385
     29 C         141.3628  145.8226  156.9196 C.3     1  UNL1        0.0739
     30 N         140.0166  145.8770  156.2601 N.3     1  UNL1       -0.2703
     31 C         139.1886  147.1246  156.3473 C.3     1  UNL1        0.0897
     32 C         139.4987  144.6836  155.5134 C.3     1  UNL1        0.0897
@<TRIPOS>BOND
     1    22    23    1
     2    23     1    1
     3     1     2   ar
     4     2     3   ar
     5     3    25    1
     6    25    27    1
     7    27    28    1
     8    28    29    1
     9    29    30    1
    10    30    31    1
    11    30    32    1
    12     3     4   ar
    13     4     5   ar
    14     5     6   ar
    15     6    10    1
    16    10    11   ar
    17    11    12   ar
    18    12    13   ar
    19    13    16    1
    20    16    17    1
    21    17    18    1
    22    18    19    1
    23    19    20    1
    24    20    21    1
    25    13    14   ar
    26    14    15   ar
    27     6     7   ar
    28     7     8   ar
    29     8     9   ar
    30     9     1   ar
    31     8     4   ar
    32    15    10   ar
    33    21    16    1
    34    23    24    1
    35    25    26    1
@<TRIPOS>MOLECULE
*****
 32 35 0 0 0
SMALL
GASTEIGER

@<TRIPOS>ATOM
      1 C         142.5820  137.7866  158.3453 C.ar    1  UNL1        0.2181
      2 N         141.1203  138.1068  158.2416 N.ar    1  UNL1       -0.1986
      3 C         140.3864  138.6549  159.4295 C.ar    1  UNL1        0.1388
      4 C         141.1143  138.8828  160.7211 C.ar    1  UNL1        0.0786
      5 S         140.6593  139.4079  162.0505 S.2     1  UNL1       -0.0826
      6 C         141.8399  139.4122  162.9758 C.ar    1  UNL1        0.0311
      7 C         143.0245  138.8898  162.2183 C.ar    1  UNL1        0.0263
      8 C         142.5761  138.5626  160.8248 C.ar    1  UNL1        0.0933
      9 N         143.3099  138.0145  159.6369 N.ar    1  UNL1       -0.2132
     10 C         141.8365  139.8602  164.4073 C.ar    1  UNL1        0.0061
     11 C         141.1418  141.1323  164.7934 C.ar    1  UNL1        0.0018
     12 C         141.1385  141.5803  166.2250 C.ar    1  UNL1        0.0145
     13 C         141.8298  140.7562  167.2704 C.ar    1  UNL1        0.0480
     14 C         142.5245  139.4841  166.8843 C.ar    1  UNL1        0.0145
     15 C         142.5278  139.0361  165.4527 C.ar    1  UNL1        0.0018
     16 N         141.8264  141.2042  168.7019 N.pl3   1  UNL1       -0.3028
     17 C         141.0336  140.4444  169.7237 C.3     1  UNL1        0.1231
     18 C         141.0302  140.8924  171.1553 C.3     1  UNL1        0.1636
     19 O         141.8197  142.1004  171.5649 O.3     1  UNL1       -0.3501
     20 C         142.6124  142.8601  170.5431 C.3     1  UNL1        0.1636
     21 C         142.6158  142.4121  169.1115 C.3     1  UNL1        0.1231
     22 C         143.1036  135.8146  156.7363 C.3     1  UNL1        0.1108
     23 N         143.3159  137.2385  157.1574 N.pl3   1  UNL1       -0.3013
     24 H         143.9369  137.8133  156.6542 H       1  UNL1        0.1497
     25 N         138.9246  138.9751  159.3257 N.pl3   1  UNL1       -0.3176
     26 H         138.2541  138.2726  159.4875 H       1  UNL1        0.1482
     27 C         138.4844  140.3656  158.9755 C.3     1  UNL1        0.0896
     28 C         138.1096  141.3296  160.0620 C.3     1  UNL1        0.0385
     29 C         138.5480  142.7616  159.9781 C.3     1  UNL1        0.0739
     30 N         138.8015  143.5432  161.2331 N.3     1  UNL1       -0.2703
     31 C         139.9150  144.5472  161.2794 C.3     1  UNL1        0.0897
     32 C         137.9414  143.3208  162.4417 C.3     1  UNL1        0.0897
@<TRIPOS>BOND
     1    22    23    1
     2    23     1    1
     3     1     2   ar
     4     2     3   ar
     5     3    25    1
     6    25    27    1
     7    27    28    1
     8    28    29    1
     9    29    30    1
    10    30    31    1
    11    30    32    1
    12     3     4   ar
    13     4     5   ar
    14     5     6   ar
    15     6    10    1
    16    10    11   ar
    17    11    12   ar
    18    12    13   ar
    19    13    16    1
    20    16    17    1
    21    17    18    1
    22    18    19    1
    23    19    20    1
    24    20    21    1
    25    13    14   ar
    26    14    15   ar
    27     6     7   ar
    28     7     8   ar
    29     8     9   ar
    30     9     1   ar
    31     8     4   ar
    32    15    10   ar
    33    21    16    1
    34    23    24    1
    35    25    26    1
@<TRIPOS>MOLECULE
*****
 32 35 0 0 0
SMALL
GASTEIGER

@<TRIPOS>ATOM
      1 C         137.6810  140.9046  157.9987 C.ar    1  UNL1        0.2181
      2 N         138.3526  142.2424  157.9047 N.ar    1  UNL1       -0.1986
      3 C         138.9398  142.8749  159.1317 C.ar    1  UNL1        0.1388
      4 C         138.8552  142.1693  160.4526 C.ar    1  UNL1        0.0786
      5 S         139.3388  142.5426  161.8226 S.2     1  UNL1       -0.0826
      6 C         138.9660  141.4353  162.7633 C.ar    1  UNL1        0.0311
      7 C         138.2521  140.3777  161.9748 C.ar    1  UNL1        0.0263
      8 C         138.1836  140.8314  160.5467 C.ar    1  UNL1        0.0933
      9 N         137.5965  140.1990  159.3197 N.ar    1  UNL1       -0.2132
     10 C         139.2561  141.3931  164.2344 C.ar    1  UNL1        0.0061
     11 C         139.8688  142.5825  164.9125 C.ar    1  UNL1        0.0018
     12 C         140.1589  142.5402  166.3836 C.ar    1  UNL1        0.0145
     13 C         139.8364  141.3085  167.1766 C.ar    1  UNL1        0.0480
     14 C         139.2238  140.1190  166.4985 C.ar    1  UNL1        0.0145
     15 C         138.9337  140.1613  165.0274 C.ar    1  UNL1        0.0018
     16 N         140.1266  141.2662  168.6476 N.pl3   1  UNL1       -0.3028
     17 C         140.3871  142.5389  169.3976 C.3     1  UNL1        0.1231
     18 C         140.6773  142.4966  170.8686 C.3     1  UNL1        0.1636
     19 O         140.7069  141.1815  171.5897 O.3     1  UNL1       -0.3501
     20 C         140.4464  139.9090  170.8397 C.3     1  UNL1        0.1636
     21 C         140.1562  139.9512  169.3687 C.3     1  UNL1        0.1231
     22 C         135.9568  140.9384  156.0556 C.3     1  UNL1        0.1108
     23 N         137.0939  140.2721  156.7718 N.pl3   1  UNL1       -0.3013
     24 H         137.4549  139.4197  156.4366 H       1  UNL1        0.1497
     25 N         139.6114  144.2129  159.0375 N.pl3   1  UNL1       -0.3176
     26 H         139.4711  144.8848  159.7432 H       1  UNL1        0.1482
     27 C         140.4967  144.5270  157.8682 C.3     1  UNL1        0.0896
     28 C         141.6655  143.6411  157.5531 C.3     1  UNL1        0.0385
     29 C         142.8387  143.5873  158.4862 C.3     1  UNL1        0.0739
     30 N         142.6800  143.0011  159.8578 N.3     1  UNL1       -0.2703
     31 C         142.6329  143.9008  161.0571 C.3     1  UNL1        0.0897
     32 C         142.5684  141.5152  160.0300 C.3     1  UNL1        0.0897
@<TRIPOS>BOND
     1    22    23    1
     2    23     1    1
     3     1     2   ar
     4     2     3   ar
     5     3    25    1
     6    25    27    1
     7    27    28    1
     8    28    29    1
     9    29    30    1
    10    30    31    1
    11    30    32    1
    12     3     4   ar
    13     4     5   ar
    14     5     6   ar
    15     6    10    1
    16    10    11   ar
    17    11    12   ar
    18    12    13   ar
    19    13    16    1
    20    16    17    1
    21    17    18    1
    22    18    19    1
    23    19    20    1
    24    20    21    1
    25    13    14   ar
    26    14    15   ar
    27     6     7   ar
    28     7     8   ar
    29     8     9   ar
    30     9     1   ar
    31     8     4   ar
    32    15    10   ar
    33    21    16    1
    34    23    24    1
    35    25    26    1
@<TRIPOS>MOLECULE
*****
 32 35 0 0 0
SMALL
GASTEIGER

@<TRIPOS>ATOM
      1 C         141.1771  145.1229  158.2634 C.ar    1  UNL1        0.2181
      2 N         140.6648  143.7468  157.9574 N.ar    1  UNL1       -0.1986
      3 C         140.4950  142.7467  159.0625 C.ar    1  UNL1        0.1388
      4 C         140.8377  143.1229  160.4736 C.ar    1  UNL1        0.0786
      5 S         140.7743  142.3551  161.7606 S.2     1  UNL1       -0.0826
      6 C         141.2475  143.2567  162.8620 C.ar    1  UNL1        0.0311
      7 C         141.6034  144.5818  162.2557 C.ar    1  UNL1        0.0263
      8 C         141.3501  144.4991  160.7795 C.ar    1  UNL1        0.0933
      9 N         141.5198  145.4991  159.6745 N.ar    1  UNL1       -0.2132
     10 C         141.3473  142.8966  164.3147 C.ar    1  UNL1        0.0061
     11 C         142.6392  142.3756  164.8711 C.ar    1  UNL1        0.0018
     12 C         142.7390  142.0155  166.3239 C.ar    1  UNL1        0.0145
     13 C         141.5470  142.1763  167.2201 C.ar    1  UNL1        0.0480
     14 C         140.2551  142.6972  166.6636 C.ar    1  UNL1        0.0145
     15 C         140.1553  143.0573  165.2109 C.ar    1  UNL1        0.0018
     16 N         141.6468  141.8161  168.6728 N.pl3   1  UNL1       -0.3028
     17 C         142.6646  140.8130  169.1286 C.3     1  UNL1        0.1231
     18 C         142.7645  140.4528  170.5813 C.3     1  UNL1        0.1636
     19 O         141.8464  141.0959  171.5782 O.3     1  UNL1       -0.3501
     20 C         140.8286  142.0989  171.1223 C.3     1  UNL1        0.1636
     21 C         140.7288  142.4591  169.6696 C.3     1  UNL1        0.1231
     22 C         140.1498  146.6090  156.3963 C.3     1  UNL1        0.1108
     23 N         141.3469  146.1230  157.1584 N.pl3   1  UNL1       -0.3013
     24 H         142.2440  146.4604  156.9332 H       1  UNL1        0.1497
     25 N         139.9826  141.3706  158.7565 N.pl3   1  UNL1       -0.3176
     26 H         139.0212  141.2266  158.6009 H       1  UNL1        0.1482
     27 C         140.9350  140.2138  158.6874 C.3     1  UNL1        0.0896
     28 C         142.3586  140.4384  158.2717 C.3     1  UNL1        0.0385
     29 C         143.4251  140.6132  159.3119 C.3     1  UNL1        0.0739
     30 N         144.0739  141.9520  159.5034 N.3     1  UNL1       -0.2703
     31 C         144.5943  142.3469  160.8536 C.3     1  UNL1        0.0897
     32 C         144.2022  142.8958  158.3447 C.3     1  UNL1        0.0897
@<TRIPOS>BOND
     1    22    23    1
     2    23     1    1
     3     1     2   ar
     4     2     3   ar
     5     3    25    1
     6    25    27    1
     7    27    28    1
     8    28    29    1
     9    29    30    1
    10    30    31    1
    11    30    32    1
    12     3     4   ar
    13     4     5   ar
    14     5     6   ar
    15     6    10    1
    16    10    11   ar
    17    11    12   ar
    18    12    13   ar
    19    13    16    1
    20    16    17    1
    21    17    18    1
    22    18    19    1
    23    19    20    1
    24    20    21    1
    25    13    14   ar
    26    14    15   ar
    27     6     7   ar
    28     7     8   ar
    29     8     9   ar
    30     9     1   ar
    31     8     4   ar
    32    15    10   ar
    33    21    16    1
    34    23    24    1
    35    25    26    1
@<TRIPOS>MOLECULE
*****
 32 35 0 0 0
SMALL
GASTEIGER

@<TRIPOS>ATOM
      1 C         140.2636  138.3330  158.3196 C.ar    1  UNL1        0.2181
      2 N         141.6897  138.7513  158.1170 N.ar    1  UNL1       -0.1986
      3 C         142.4811  139.3000  159.2672 C.ar    1  UNL1        0.1388
      4 C         141.8462  139.4301  160.6200 C.ar    1  UNL1        0.0786
      5 S         142.3728  139.9322  161.9317 S.2     1  UNL1       -0.0826
      6 C         141.2721  139.8240  162.9450 C.ar    1  UNL1        0.0311
      7 C         140.0652  139.2551  162.2595 C.ar    1  UNL1        0.0263
      8 C         140.4200  139.0117  160.8226 C.ar    1  UNL1        0.0933
      9 N         139.6288  138.4631  159.6724 N.ar    1  UNL1       -0.2132
     10 C         141.3624  140.2159  164.3901 C.ar    1  UNL1        0.0061
     11 C         140.1678  140.0640  165.2844 C.ar    1  UNL1        0.0018
     12 C         140.2581  140.4559  166.7295 C.ar    1  UNL1        0.0145
     13 C         141.5430  140.9997  167.2803 C.ar    1  UNL1        0.0480
     14 C         142.7376  141.1516  166.3860 C.ar    1  UNL1        0.0145
     15 C         142.6473  140.7596  164.9409 C.ar    1  UNL1        0.0018
     16 N         141.6333  141.3916  168.7254 N.pl3   1  UNL1       -0.3028
     17 C         140.7995  140.6796  169.7491 C.3     1  UNL1        0.1231
     18 C         140.8898  141.0715  171.1941 C.3     1  UNL1        0.1636
     19 O         141.8139  142.1754  171.6155 O.3     1  UNL1       -0.3501
     20 C         142.6476  142.8873  170.5918 C.3     1  UNL1        0.1636
     21 C         142.5574  142.4954  169.1467 C.3     1  UNL1        0.1231
     22 C         140.1787  137.1533  156.0064 C.3     1  UNL1        0.1108
     23 N         139.4723  137.7843  157.1694 N.pl3   1  UNL1       -0.3013
     24 H         138.4893  137.8385  157.1779 H       1  UNL1        0.1497
     25 N         143.9072  139.7184  159.0646 N.pl3   1  UNL1       -0.3176
     26 H         144.6386  139.1590  159.4132 H       1  UNL1        0.1482
     27 C         144.2191  140.9889  158.3308 C.3     1  UNL1        0.0896
     28 C         144.3849  142.2719  159.0900 C.3     1  UNL1        0.0385
     29 C         143.1836  142.9686  159.6571 C.3     1  UNL1        0.0739
     30 N         143.2440  143.5704  161.0297 N.3     1  UNL1       -0.2703
     31 C         144.4396  143.3287  161.9027 C.3     1  UNL1        0.0897
     32 C         142.1087  144.4140  161.5293 C.3     1  UNL1        0.0897
@<TRIPOS>BOND
     1    22    23    1
     2    23     1    1
     3     1     2   ar
     4     2     3   ar
     5     3    25    1
     6    25    27    1
     7    27    28    1
     8    28    29    1
     9    29    30    1
    10    30    31    1
    11    30    32    1
    12     3     4   ar
    13     4     5   ar
    14     5     6   ar
    15     6    10    1
    16    10    11   ar
    17    11    12   ar
    18    12    13   ar
    19    13    16    1
    20    16    17    1
    21    17    18    1
    22    18    19    1
    23    19    20    1
    24    20    21    1
    25    13    14   ar
    26    14    15   ar
    27     6     7   ar
    28     7     8   ar
    29     8     9   ar
    30     9     1   ar
    31     8     4   ar
    32    15    10   ar
    33    21    16    1
    34    23    24    1
    35    25    26    1
