@<TRIPOS>MOLECULE
*****
 26 27 0 0 0
SMALL
GASTEIGER

@<TRIPOS>ATOM
      1 C         140.9318  144.0048  162.9330 C.ar    1  UNL1        0.1255
      2 C         141.4907  142.6353  163.1823 C.ar    1  UNL1        0.0233
      3 C         141.1169  141.8880  164.4280 C.ar    1  UNL1        0.0383
      4 C         140.1841  142.5101  165.4244 C.ar    1  UNL1        0.1387
      5 C         139.6252  143.8796  165.1751 C.ar    1  UNL1        0.0383
      6 C         139.9991  144.6269  163.9294 C.ar    1  UNL1        0.0233
      7 S         141.3056  144.7521  161.6873 S.O2    1  UNL1        0.0768
      8 O         142.1537  143.5955  161.2479 O.2     1  UNL1       -0.1498
      9 O         140.4576  145.9087  162.1267 O.2     1  UNL1       -0.1498
     10 N         141.2173  146.1074  157.9583 N.am    1  UNL1       -0.2894
     11 C         140.8435  145.3601  159.2040 C.2     1  UNL1        0.3194
     12 O         139.6336  144.4734  159.2121 O.2     1  UNL1       -0.2512
     13 N         141.6795  145.4994  160.4416 N.am    1  UNL1       -0.1693
     14 H         142.0114  146.6894  157.9530 H       1  UNL1        0.1509
     15 H         142.4735  146.0814  160.4363 H       1  UNL1        0.1781
     16 C         139.3562  147.0110  156.3867 C.3     1  UNL1        0.0213
     17 C         140.3812  145.9680  156.7207 C.3     1  UNL1        0.0732
     18 C         140.5702  144.7857  155.8172 C.3     1  UNL1        0.0213
     19 O         139.8103  141.7628  166.6701 O.3     1  UNL1       -0.4740
     20 C         139.8166  140.2629  166.6753 C.3     1  UNL1        0.2226
     21 C         138.6264  139.5061  166.1649 C.3     1  UNL1        0.1200
     22 N         138.5432  139.1276  164.7157 N.3     1  UNL1       -0.2696
     23 C         138.0365  139.9987  163.6047 C.3     1  UNL1        0.0722
     24 C         138.1323  139.2211  162.3255 C.3     1  UNL1        0.0188
     25 C         138.6982  137.8694  162.6461 C.3     1  UNL1        0.0188
     26 C         138.9522  137.8116  164.1233 C.3     1  UNL1        0.0722
@<TRIPOS>BOND
     1    16    17    1
     2    17    18    1
     3    17    10    1
     4    10    11   am
     5    11    12    2
     6    11    13   am
     7    13     7    1
     8     7     8    2
     9     7     9    2
    10     7     1    1
    11     1     2   ar
    12     2     3   ar
    13     3     4   ar
    14     4    19    1
    15    19    20    1
    16    20    21    1
    17    21    22    1
    18    22    23    1
    19    23    24    1
    20    24    25    1
    21    25    26    1
    22     4     5   ar
    23     5     6   ar
    24     6     1   ar
    25    26    22    1
    26    10    14    1
    27    13    15    1
@<TRIPOS>MOLECULE
*****
 26 27 0 0 0
SMALL
GASTEIGER

@<TRIPOS>ATOM
      1 C         141.3616  140.5380  168.5935 C.ar    1  UNL1        0.1255
      2 C         140.1819  139.7113  168.1754 C.ar    1  UNL1        0.0233
      3 C         139.3193  140.1592  167.0329 C.ar    1  UNL1        0.0383
      4 C         139.6364  141.4338  166.3086 C.ar    1  UNL1        0.1387
      5 C         140.8161  142.2605  166.7267 C.ar    1  UNL1        0.0383
      6 C         141.6787  141.8126  167.8692 C.ar    1  UNL1        0.0233
      7 S         142.2242  140.0900  169.7360 S.O2    1  UNL1        0.0768
      8 O         141.0795  139.2931  170.2878 O.2     1  UNL1       -0.1498
      9 O         143.3689  140.8870  169.1842 O.2     1  UNL1       -0.1498
     10 N         144.6521  137.8706  171.9562 N.am    1  UNL1       -0.2894
     11 C         143.7895  138.3185  170.8137 C.2     1  UNL1        0.3194
     12 O         143.6296  137.4428  169.6064 O.2     1  UNL1       -0.2512
     13 N         143.0868  139.6421  170.8785 N.am    1  UNL1       -0.1693
     14 H         144.7570  138.4453  172.7486 H       1  UNL1        0.1509
     15 H         143.1917  140.2169  171.6709 H       1  UNL1        0.1781
     16 C         146.8505  136.4960  171.7903 C.3     1  UNL1        0.0213
     17 C         145.3548  136.5469  171.8914 C.3     1  UNL1        0.0732
     18 C         144.5618  135.2742  171.9276 C.3     1  UNL1        0.0213
     19 O         138.7738  141.8818  165.1661 O.3     1  UNL1       -0.4740
     20 C         139.4051  142.3627  163.8933 C.3     1  UNL1        0.2226
     21 C         139.7892  141.3788  162.8281 C.3     1  UNL1        0.1200
     22 N         139.6878  139.9063  163.0955 N.3     1  UNL1       -0.2696
     23 C         140.7741  139.0345  163.6523 C.3     1  UNL1        0.0722
     24 C         140.2401  137.6365  163.7540 C.3     1  UNL1        0.0188
     25 C         138.8237  137.6443  163.2601 C.3     1  UNL1        0.0188
     26 C         138.4824  139.0471  162.8532 C.3     1  UNL1        0.0722
@<TRIPOS>BOND
     1    16    17    1
     2    17    18    1
     3    17    10    1
     4    10    11   am
     5    11    12    2
     6    11    13   am
     7    13     7    1
     8     7     8    2
     9     7     9    2
    10     7     1    1
    11     1     2   ar
    12     2     3   ar
    13     3     4   ar
    14     4    19    1
    15    19    20    1
    16    20    21    1
    17    21    22    1
    18    22    23    1
    19    23    24    1
    20    24    25    1
    21    25    26    1
    22     4     5   ar
    23     5     6   ar
    24     6     1   ar
    25    26    22    1
    26    10    14    1
    27    13    15    1
@<TRIPOS>MOLECULE
*****
 26 27 0 0 0
SMALL
GASTEIGER

@<TRIPOS>ATOM
      1 C         140.8597  144.6743  162.6760 C.ar    1  UNL1        0.1255
      2 C         139.5803  144.9722  163.4002 C.ar    1  UNL1        0.0233
      3 C         139.3177  144.3570  164.7427 C.ar    1  UNL1        0.0383
      4 C         140.3343  143.4437  165.3611 C.ar    1  UNL1        0.1387
      5 C         141.6136  143.1458  164.6369 C.ar    1  UNL1        0.0383
      6 C         141.8763  143.7611  163.2943 C.ar    1  UNL1        0.0233
      7 S         141.1223  145.2896  161.3334 S.O2    1  UNL1        0.0768
      8 O         142.2923  144.3707  161.1412 O.2     1  UNL1       -0.1498
      9 O         139.9524  146.2084  161.5256 O.2     1  UNL1       -0.1498
     10 N         140.8609  146.0737  157.4518 N.am    1  UNL1       -0.2894
     11 C         140.5982  145.4584  158.7944 C.2     1  UNL1        0.3194
     12 O         139.5487  144.3967  158.9404 O.2     1  UNL1       -0.2512
     13 N         141.3850  145.9049  159.9909 N.am    1  UNL1       -0.1693
     14 H         141.5497  146.7706  157.3560 H       1  UNL1        0.1509
     15 H         142.0738  146.6017  159.8950 H       1  UNL1        0.1781
     16 C         138.9304  146.4598  155.7565 C.3     1  UNL1        0.0213
     17 C         140.0741  145.6272  156.2553 C.3     1  UNL1        0.0732
     18 C         140.4309  144.3482  155.5577 C.3     1  UNL1        0.0213
     19 O         140.0716  142.8285  166.7036 O.3     1  UNL1       -0.4740
     20 C         141.1720  142.1117  167.4284 C.3     1  UNL1        0.2226
     21 C         141.2611  140.6156  167.3658 C.3     1  UNL1        0.1200
     22 N         140.1031  139.8165  166.8457 N.3     1  UNL1       -0.2696
     23 C         140.0137  139.1701  165.4950 C.3     1  UNL1        0.0722
     24 C         138.6866  138.4775  165.3994 C.3     1  UNL1        0.0188
     25 C         137.9558  138.6959  166.6911 C.3     1  UNL1        0.0188
     26 C         138.8312  139.5234  167.5849 C.3     1  UNL1        0.0722
@<TRIPOS>BOND
     1    16    17    1
     2    17    18    1
     3    17    10    1
     4    10    11   am
     5    11    12    2
     6    11    13   am
     7    13     7    1
     8     7     8    2
     9     7     9    2
    10     7     1    1
    11     1     2   ar
    12     2     3   ar
    13     3     4   ar
    14     4    19    1
    15    19    20    1
    16    20    21    1
    17    21    22    1
    18    22    23    1
    19    23    24    1
    20    24    25    1
    21    25    26    1
    22     4     5   ar
    23     5     6   ar
    24     6     1   ar
    25    26    22    1
    26    10    14    1
    27    13    15    1
@<TRIPOS>MOLECULE
*****
 26 27 0 0 0
SMALL
GASTEIGER

@<TRIPOS>ATOM
      1 C         141.3877  140.8096  168.5741 C.ar    1  UNL1        0.1255
      2 C         140.5464  139.8224  167.8207 C.ar    1  UNL1        0.0233
      3 C         139.6913  140.2837  166.6779 C.ar    1  UNL1        0.0383
      4 C         139.6776  141.7322  166.2885 C.ar    1  UNL1        0.1387
      5 C         140.5189  142.7194  167.0419 C.ar    1  UNL1        0.0383
      6 C         141.3740  142.2580  168.1847 C.ar    1  UNL1        0.0233
      7 S         142.2427  140.3482  169.7170 S.O2    1  UNL1        0.0768
      8 O         141.1048  139.5184  170.2333 O.2     1  UNL1       -0.1498
      9 O         143.3806  141.1780  169.2006 O.2     1  UNL1       -0.1498
     10 N         144.6029  138.0746  171.9553 N.am    1  UNL1       -0.2894
     11 C         143.7478  138.5359  170.8125 C.2     1  UNL1        0.3194
     12 O         143.5429  137.6462  169.6223 O.2     1  UNL1       -0.2512
     13 N         143.0978  139.8869  170.8598 N.am    1  UNL1       -0.1693
     14 H         144.7374  138.6585  172.7365 H       1  UNL1        0.1509
     15 H         143.2323  140.4708  171.6410 H       1  UNL1        0.1781
     16 C         146.7463  136.6125  171.8215 C.3     1  UNL1        0.0213
     17 C         145.2530  136.7236  171.9080 C.3     1  UNL1        0.0732
     18 C         144.4097  135.4837  171.9471 C.3     1  UNL1        0.0213
     19 O         138.8226  142.1936  165.1456 O.3     1  UNL1       -0.4740
     20 C         138.6813  143.6590  164.8585 C.3     1  UNL1        0.2226
     21 C         139.4111  144.2698  163.6990 C.3     1  UNL1        0.1200
     22 N         140.9105  144.2474  163.6606 N.3     1  UNL1       -0.2696
     23 C         141.7701  143.0292  163.4963 C.3     1  UNL1        0.0722
     24 C         143.2043  143.4681  163.5138 C.3     1  UNL1        0.0188
     25 C         143.2311  144.9576  163.6890 C.3     1  UNL1        0.0188
     26 C         141.8134  145.4392  163.7797 C.3     1  UNL1        0.0722
@<TRIPOS>BOND
     1    16    17    1
     2    17    18    1
     3    17    10    1
     4    10    11   am
     5    11    12    2
     6    11    13   am
     7    13     7    1
     8     7     8    2
     9     7     9    2
    10     7     1    1
    11     1     2   ar
    12     2     3   ar
    13     3     4   ar
    14     4    19    1
    15    19    20    1
    16    20    21    1
    17    21    22    1
    18    22    23    1
    19    23    24    1
    20    24    25    1
    21    25    26    1
    22     4     5   ar
    23     5     6   ar
    24     6     1   ar
    25    26    22    1
    26    10    14    1
    27    13    15    1
@<TRIPOS>MOLECULE
*****
 26 27 0 0 0
SMALL
GASTEIGER

@<TRIPOS>ATOM
      1 C         138.5252  139.1447  163.5019 C.ar    1  UNL1        0.1255
      2 C         138.0040  140.3058  162.7080 C.ar    1  UNL1        0.0233
      3 C         138.1626  140.3262  161.2166 C.ar    1  UNL1        0.0383
      4 C         138.8425  139.1856  160.5190 C.ar    1  UNL1        0.1387
      5 C         139.3637  138.0245  161.3129 C.ar    1  UNL1        0.0383
      6 C         139.2051  138.0041  162.8043 C.ar    1  UNL1        0.0233
      7 S         138.3665  139.1243  164.9933 S.O2    1  UNL1        0.0768
      8 O         138.8780  137.7147  165.0285 O.2     1  UNL1       -0.1498
      9 O         137.8550  140.5340  164.9582 O.2     1  UNL1       -0.1498
     10 N         139.0880  139.7220  168.8498 N.am    1  UNL1       -0.2894
     11 C         139.2467  139.7424  167.3583 C.2     1  UNL1        0.3194
     12 O         140.4443  140.4012  166.7404 O.2     1  UNL1       -0.2512
     13 N         138.2078  139.1039  166.4848 N.am    1  UNL1       -0.1693
     14 H         138.3020  139.2895  169.2553 H       1  UNL1        0.1509
     15 H         137.4218  138.6715  166.8903 H       1  UNL1        0.1781
     16 C         139.9283  141.7602  170.2244 C.3     1  UNL1        0.0213
     17 C         140.1270  140.3604  169.7233 C.3     1  UNL1        0.0732
     18 C         141.3645  139.5991  170.0958 C.3     1  UNL1        0.0213
     19 O         139.0012  139.2060  159.0275 O.3     1  UNL1       -0.4740
     20 C         140.0595  138.3673  158.3744 C.3     1  UNL1        0.2226
     21 C         141.4801  138.8473  158.3375 C.3     1  UNL1        0.1200
     22 N         142.3262  138.7818  159.5744 N.3     1  UNL1       -0.2696
     23 C         142.9990  137.5565  160.1185 C.3     1  UNL1        0.0722
     24 C         143.7367  137.9474  161.3647 C.3     1  UNL1        0.0188
     25 C         143.5198  139.4144  161.5907 C.3     1  UNL1        0.0188
     26 C         142.6481  139.9300  160.4843 C.3     1  UNL1        0.0722
@<TRIPOS>BOND
     1    16    17    1
     2    17    18    1
     3    17    10    1
     4    10    11   am
     5    11    12    2
     6    11    13   am
     7    13     7    1
     8     7     8    2
     9     7     9    2
    10     7     1    1
    11     1     2   ar
    12     2     3   ar
    13     3     4   ar
    14     4    19    1
    15    19    20    1
    16    20    21    1
    17    21    22    1
    18    22    23    1
    19    23    24    1
    20    24    25    1
    21    25    26    1
    22     4     5   ar
    23     5     6   ar
    24     6     1   ar
    25    26    22    1
    26    10    14    1
    27    13    15    1
@<TRIPOS>MOLECULE
*****
 26 27 0 0 0
SMALL
GASTEIGER

@<TRIPOS>ATOM
      1 C         138.4251  140.2651  164.4218 C.ar    1  UNL1        0.1255
      2 C         139.1211  141.5480  164.7676 C.ar    1  UNL1        0.0233
      3 C         139.6770  141.7518  166.1458 C.ar    1  UNL1        0.0383
      4 C         139.5367  140.6727  167.1782 C.ar    1  UNL1        0.1387
      5 C         138.8407  139.3898  166.8324 C.ar    1  UNL1        0.0383
      6 C         138.2849  139.1860  165.4541 C.ar    1  UNL1        0.0233
      7 S         137.8693  140.0613  163.0435 S.O2    1  UNL1        0.0768
      8 O         138.5158  138.7091  162.9827 O.2     1  UNL1       -0.1498
      9 O         137.2228  141.4135  163.1043 O.2     1  UNL1       -0.1498
     10 N         137.5350  140.1131  159.0893 N.am    1  UNL1       -0.2894
     11 C         138.0909  140.3169  160.4676 C.2     1  UNL1        0.3194
     12 O         139.4242  140.9801  160.6481 O.2     1  UNL1       -0.2512
     13 N         137.3134  139.8575  161.6653 N.am    1  UNL1       -0.1693
     14 H         136.6600  139.6778  158.9709 H       1  UNL1        0.1509
     15 H         136.4384  139.4222  161.5468 H       1  UNL1        0.1781
     16 C         139.3536  139.6788  157.2854 C.3     1  UNL1        0.0213
     17 C         138.3125  140.5725  157.8916 C.3     1  UNL1        0.0732
     18 C         138.0489  141.9254  157.3001 C.3     1  UNL1        0.0213
     19 O         140.0926  140.8765  168.5565 O.3     1  UNL1       -0.4740
     20 C         141.0946  139.9083  169.1118 C.3     1  UNL1        0.2226
     21 C         142.5213  139.9589  168.6514 C.3     1  UNL1        0.1200
     22 N         142.8851  140.7351  167.4204 N.3     1  UNL1       -0.2696
     23 C         143.1543  142.2093  167.3551 C.3     1  UNL1        0.0722
     24 C         143.4791  142.5587  165.9330 C.3     1  UNL1        0.0188
     25 C         143.4106  141.3004  165.1193 C.3     1  UNL1        0.0188
     26 C         143.0435  140.1734  166.0386 C.3     1  UNL1        0.0722
@<TRIPOS>BOND
     1    16    17    1
     2    17    18    1
     3    17    10    1
     4    10    11   am
     5    11    12    2
     6    11    13   am
     7    13     7    1
     8     7     8    2
     9     7     9    2
    10     7     1    1
    11     1     2   ar
    12     2     3   ar
    13     3     4   ar
    14     4    19    1
    15    19    20    1
    16    20    21    1
    17    21    22    1
    18    22    23    1
    19    23    24    1
    20    24    25    1
    21    25    26    1
    22     4     5   ar
    23     5     6   ar
    24     6     1   ar
    25    26    22    1
    26    10    14    1
    27    13    15    1
@<TRIPOS>MOLECULE
*****
 26 27 0 0 0
SMALL
GASTEIGER

@<TRIPOS>ATOM
      1 C         141.0250  141.3310  168.7829 C.ar    1  UNL1        0.1255
      2 C         141.7623  141.0433  167.5087 C.ar    1  UNL1        0.0233
      3 C         141.1660  140.1178  166.4898 C.ar    1  UNL1        0.0383
      4 C         139.8326  139.4802  166.7452 C.ar    1  UNL1        0.1387
      5 C         139.0954  139.7679  168.0194 C.ar    1  UNL1        0.0383
      6 C         139.6916  140.6934  169.0383 C.ar    1  UNL1        0.0233
      7 S         141.6213  142.2565  169.8018 S.O2    1  UNL1        0.0768
      8 O         142.2310  141.0834  170.5105 O.2     1  UNL1       -0.1498
      9 O         141.0116  143.4295  169.0931 O.2     1  UNL1       -0.1498
     10 N         144.2352  144.5646  171.6965 N.am    1  UNL1       -0.2894
     11 C         143.6389  143.6392  170.6777 C.2     1  UNL1        0.3194
     12 O         144.4642  143.1710  169.5158 O.2     1  UNL1       -0.2512
     13 N         142.2175  143.1819  170.8206 N.am    1  UNL1       -0.1693
     14 H         143.6936  144.8719  172.4591 H       1  UNL1        0.1509
     15 H         141.6759  143.4892  171.5832 H       1  UNL1        0.1781
     16 C         146.7340  144.0307  171.2266 C.3     1  UNL1        0.0213
     17 C         145.6566  145.0219  171.5535 C.3     1  UNL1        0.0732
     18 C         146.0007  146.4702  171.7373 C.3     1  UNL1        0.0213
     19 O         139.2363  138.5547  165.7263 O.3     1  UNL1       -0.4740
     20 C         138.2693  139.0827  164.7085 C.3     1  UNL1        0.2226
     21 C         138.7509  139.9930  163.6179 C.3     1  UNL1        0.1200
     22 N         138.4318  141.4579  163.6681 N.3     1  UNL1       -0.2696
     23 C         137.9736  142.3004  162.5147 C.3     1  UNL1        0.0722
     24 C         137.7734  143.7006  163.0142 C.3     1  UNL1        0.0188
     25 C         138.1078  143.7233  164.4763 C.3     1  UNL1        0.0188
     26 C         138.5147  142.3373  164.8804 C.3     1  UNL1        0.0722
@<TRIPOS>BOND
     1    16    17    1
     2    17    18    1
     3    17    10    1
     4    10    11   am
     5    11    12    2
     6    11    13   am
     7    13     7    1
     8     7     8    2
     9     7     9    2
    10     7     1    1
    11     1     2   ar
    12     2     3   ar
    13     3     4   ar
    14     4    19    1
    15    19    20    1
    16    20    21    1
    17    21    22    1
    18    22    23    1
    19    23    24    1
    20    24    25    1
    21    25    26    1
    22     4     5   ar
    23     5     6   ar
    24     6     1   ar
    25    26    22    1
    26    10    14    1
    27    13    15    1
@<TRIPOS>MOLECULE
*****
 26 27 0 0 0
SMALL
GASTEIGER

@<TRIPOS>ATOM
      1 C         138.7590  138.5768  163.6733 C.ar    1  UNL1        0.1255
      2 C         138.8862  137.4176  164.6166 C.ar    1  UNL1        0.0233
      3 C         138.7367  137.6326  166.0936 C.ar    1  UNL1        0.0383
      4 C         138.4600  139.0068  166.6272 C.ar    1  UNL1        0.1387
      5 C         138.3328  140.1661  165.6839 C.ar    1  UNL1        0.0383
      6 C         138.4823  139.9510  164.2069 C.ar    1  UNL1        0.0233
      7 S         138.9084  138.3618  162.1963 S.O2    1  UNL1        0.0768
      8 O         137.8854  139.4278  161.9376 O.2     1  UNL1       -0.1498
      9 O         139.9315  137.2958  162.4550 O.2     1  UNL1       -0.1498
     10 N         140.2848  138.6499  158.4852 N.am    1  UNL1       -0.2894
     11 C         140.1353  138.8649  159.9621 C.2     1  UNL1        0.3194
     12 O         141.0634  139.7981  160.6819 O.2     1  UNL1       -0.2512
     13 N         139.0579  138.1468  160.7194 N.am    1  UNL1       -0.1693
     14 H         139.6758  138.0374  158.0128 H       1  UNL1        0.1509
     15 H         138.4488  137.5343  160.2469 H       1  UNL1        0.1781
     16 C         142.7220  138.7496  157.5905 C.3     1  UNL1        0.0213
     17 C         141.3623  139.3681  157.7280 C.3     1  UNL1        0.0732
     18 C         141.0801  140.7046  157.1083 C.3     1  UNL1        0.0213
     19 O         138.3106  139.2218  168.1042 O.3     1  UNL1       -0.4740
     20 C         139.1674  140.2338  168.8053 C.3     1  UNL1        0.2226
     21 C         140.5856  139.8985  169.1606 C.3     1  UNL1        0.1200
     22 N         141.5570  140.9948  169.4844 N.3     1  UNL1       -0.2696
     23 C         143.0083  141.0268  169.1067 C.3     1  UNL1        0.0722
     24 C         143.5959  142.3032  169.6315 C.3     1  UNL1        0.0188
     25 C         142.5076  143.0602  170.3335 C.3     1  UNL1        0.0188
     26 C         141.2475  142.2515  170.2426 C.3     1  UNL1        0.0722
@<TRIPOS>BOND
     1    16    17    1
     2    17    18    1
     3    17    10    1
     4    10    11   am
     5    11    12    2
     6    11    13   am
     7    13     7    1
     8     7     8    2
     9     7     9    2
    10     7     1    1
    11     1     2   ar
    12     2     3   ar
    13     3     4   ar
    14     4    19    1
    15    19    20    1
    16    20    21    1
    17    21    22    1
    18    22    23    1
    19    23    24    1
    20    24    25    1
    21    25    26    1
    22     4     5   ar
    23     5     6   ar
    24     6     1   ar
    25    26    22    1
    26    10    14    1
    27    13    15    1
@<TRIPOS>MOLECULE
*****
 26 27 0 0 0
SMALL
GASTEIGER

@<TRIPOS>ATOM
      1 C         138.7253  138.8380  163.1915 C.ar    1  UNL1        0.1255
      2 C         139.0045  137.6314  164.0377 C.ar    1  UNL1        0.0233
      3 C         138.9079  137.7244  165.5317 C.ar    1  UNL1        0.0383
      4 C         138.5322  139.0240  166.1795 C.ar    1  UNL1        0.1387
      5 C         138.2530  140.2306  165.3334 C.ar    1  UNL1        0.0383
      6 C         138.3495  140.1376  163.8394 C.ar    1  UNL1        0.0233
      7 S         138.8218  138.7450  161.6975 S.O2    1  UNL1        0.0768
      8 O         137.3924  138.2950  161.6332 O.2     1  UNL1       -0.1498
      9 O         140.2513  139.1951  161.7619 O.2     1  UNL1       -0.1498
     10 N         138.6241  139.7307  157.8583 N.am    1  UNL1       -0.2894
     11 C         138.5276  139.8237  159.3523 C.2     1  UNL1        0.3194
     12 O         138.0402  141.0884  159.9952 O.2     1  UNL1       -0.2512
     13 N         138.9184  138.6521  160.2035 N.am    1  UNL1       -0.1693
     14 H         138.9440  138.9007  157.4364 H       1  UNL1        0.1509
     15 H         139.2382  137.8221  159.7816 H       1  UNL1        0.1781
     16 C         139.2840  141.8469  156.5032 C.3     1  UNL1        0.0213
     17 C         138.2333  140.9024  157.0072 C.3     1  UNL1        0.0732
     18 C         136.7919  141.1295  156.6599 C.3     1  UNL1        0.0213
     19 O         138.4356  139.1169  167.6735 O.3     1  UNL1       -0.4740
     20 C         139.3409  140.0455  168.4272 C.3     1  UNL1        0.2226
     21 C         140.8280  139.9435  168.2595 C.3     1  UNL1        0.1200
     22 N         141.5237  140.7688  167.2178 N.3     1  UNL1       -0.2696
     23 C         142.7448  140.3666  166.4450 C.3     1  UNL1        0.0722
     24 C         143.0961  141.4903  165.5156 C.3     1  UNL1        0.0188
     25 C         142.0922  142.5870  165.7141 C.3     1  UNL1        0.0188
     26 C         141.1203  142.1411  166.7660 C.3     1  UNL1        0.0722
@<TRIPOS>BOND
     1    16    17    1
     2    17    18    1
     3    17    10    1
     4    10    11   am
     5    11    12    2
     6    11    13   am
     7    13     7    1
     8     7     8    2
     9     7     9    2
    10     7     1    1
    11     1     2   ar
    12     2     3   ar
    13     3     4   ar
    14     4    19    1
    15    19    20    1
    16    20    21    1
    17    21    22    1
    18    22    23    1
    19    23    24    1
    20    24    25    1
    21    25    26    1
    22     4     5   ar
    23     5     6   ar
    24     6     1   ar
    25    26    22    1
    26    10    14    1
    27    13    15    1
