@<TRIPOS>MOLECULE
*****
 36 40 0 0 0
SMALL
GASTEIGER

@<TRIPOS>ATOM
      1 N         141.9701  140.4057  160.5356 N.3     1  UNL1       -0.2689
      2 C         141.1508  141.3196  161.3978 C.3     1  UNL1        0.0724
      3 C         141.2046  141.1897  162.8912 C.3     1  UNL1        0.0175
      4 C         142.0776  140.1459  163.5223 C.3     1  UNL1        0.0060
      5 C         142.8968  139.2320  162.6600 C.3     1  UNL1        0.0175
      6 C         142.8431  139.3619  161.1667 C.3     1  UNL1        0.0724
      7 C         141.2583  141.0599  164.3846 C.3     1  UNL1        0.0217
      8 C         141.3121  140.9300  165.8780 C.3     1  UNL1        0.0937
      9 N         142.1851  139.8862  166.5091 N.am    1  UNL1       -0.2761
     10 C         142.2388  139.7563  168.0026 C.2     1  UNL1        0.2494
     11 O         143.1118  138.7125  168.6337 O.2     1  UNL1       -0.2699
     12 C         143.0043  138.9722  165.6469 C.3     1  UNL1        0.0937
     13 C         142.9506  139.1021  164.1534 C.3     1  UNL1        0.0217
     14 C         141.4196  140.6702  168.8648 C.ar    1  UNL1        0.0659
     15 C         141.9641  142.0084  169.2685 C.ar    1  UNL1        0.0817
     16 C         141.1448  142.9223  170.1307 C.ar    1  UNL1        0.3019
     17 N         139.7810  142.4981  170.5894 N.ar    1  UNL1       -0.1519
     18 O         138.9618  143.4121  171.4516 O.co2   1  UNL1       -0.6187
     19 C         139.2366  141.1600  170.1857 C.ar    1  UNL1        0.3019
     20 C         140.0559  140.2460  169.3234 C.ar    1  UNL1        0.0817
     21 C         141.9163  140.5356  159.0421 C.3     1  UNL1        0.1022
     22 C         143.9076  142.1297  158.5487 C.ar    1  UNL1        0.1427
     23 C         145.1539  142.4516  157.7784 C.ar    1  UNL1        0.0372
     24 C         145.6551  141.5015  156.7316 C.ar    1  UNL1        0.0031
     25 C         144.9101  140.2293  156.4549 C.ar    1  UNL1       -0.0001
     26 C         143.6638  139.9073  157.2251 C.ar    1  UNL1        0.0001
     27 C         143.1626  140.8575  158.2720 C.ar    1  UNL1        0.0284
     28 O         143.4064  143.0799  159.5955 O.3     1  UNL1       -0.4507
     29 C         143.3706  143.8910  162.0634 C.ar    1  UNL1        0.1730
     30 C         143.8882  143.8002  163.4683 C.ar    1  UNL1        0.0401
     31 C         144.9594  142.8074  163.8103 C.ar    1  UNL1        0.0033
     32 C         145.5129  141.9054  162.7472 C.ar    1  UNL1        0.0033
     33 C         144.9953  141.9962  161.3423 C.ar    1  UNL1        0.0406
     34 C         143.9241  142.9890  161.0004 C.ar    1  UNL1        0.1789
     35 C         141.1662  145.1227  162.6748 C.3     1  UNL1        0.2526
     36 O         142.2994  144.8839  161.7215 O.3     1  UNL1       -0.4684
@<TRIPOS>UNITY_ATOM_ATTR
17 1
charge 1
18 1
charge -1
@<TRIPOS>BOND
     1    35    36    1
     2    36    29    1
     3    29    30   ar
     4    30    31   ar
     5    31    32   ar
     6    32    33   ar
     7    33    34   ar
     8    34    28    1
     9    28    22    1
    10    22    23   ar
    11    23    24   ar
    12    24    25   ar
    13    25    26   ar
    14    26    27   ar
    15    27    21    1
    16    21     1    1
    17     1     2    1
    18     2     3    1
    19     3     4    1
    20     4     5    1
    21     5     6    1
    22     4     7    1
    23     7     8    1
    24     8     9    1
    25     9    10   am
    26    10    11    2
    27    10    14    1
    28    14    15   ar
    29    15    16   ar
    30    16    17   ar
    31    17    18    1
    32    17    19   ar
    33    19    20   ar
    34     9    12    1
    35    12    13    1
    36    34    29   ar
    37    27    22   ar
    38     6     1    1
    39    20    14   ar
    40    13     4    1
@<TRIPOS>MOLECULE
*****
 36 40 0 0 0
SMALL
GASTEIGER

@<TRIPOS>ATOM
      1 N         142.5921  140.1919  160.6217 N.3     1  UNL1       -0.2689
      2 C         141.7757  141.1548  161.4317 C.3     1  UNL1        0.0724
      3 C         141.7445  141.0389  162.9269 C.3     1  UNL1        0.0175
      4 C         142.5299  139.9601  163.6120 C.3     1  UNL1        0.0060
      5 C         143.3463  138.9972  162.8020 C.3     1  UNL1        0.0175
      6 C         143.3775  139.1131  161.3069 C.3     1  UNL1        0.0724
      7 C         141.7134  140.9230  164.4221 C.3     1  UNL1        0.0217
      8 C         141.6822  140.8071  165.9173 C.3     1  UNL1        0.0937
      9 N         142.4675  139.7283  166.6024 N.am    1  UNL1       -0.2761
     10 C         142.4364  139.6125  168.0977 C.2     1  UNL1        0.2494
     11 O         143.2217  138.5336  168.7828 O.2     1  UNL1       -0.2699
     12 C         143.2840  138.7654  165.7924 C.3     1  UNL1        0.0937
     13 C         143.3152  138.8813  164.2972 C.3     1  UNL1        0.0217
     14 C         141.6199  140.5754  168.9077 C.ar    1  UNL1        0.0659
     15 C         142.2288  141.8620  169.3808 C.ar    1  UNL1        0.0817
     16 C         141.4123  142.8249  170.1908 C.ar    1  UNL1        0.3019
     17 N         139.9869  142.5012  170.5277 N.ar    1  UNL1       -0.1519
     18 O         139.1704  143.4641  171.3377 O.co2   1  UNL1       -0.6187
     19 C         139.3780  141.2146  170.0546 C.ar    1  UNL1        0.3019
     20 C         140.1945  140.2516  169.2445 C.ar    1  UNL1        0.0817
     21 C         142.6233  140.3077  159.1265 C.3     1  UNL1        0.1022
     22 C         140.5589  138.9830  158.2703 C.ar    1  UNL1        0.1427
     23 C         139.9760  137.8924  157.4212 C.ar    1  UNL1        0.0372
     24 C         140.8748  137.0360  156.5792 C.ar    1  UNL1        0.0031
     25 C         142.3563  137.2703  156.5863 C.ar    1  UNL1       -0.0001
     26 C         142.9392  138.3608  157.4354 C.ar    1  UNL1        0.0001
     27 C         142.0405  139.2172  158.2774 C.ar    1  UNL1        0.0284
     28 O         139.6602  139.8393  159.1123 O.3     1  UNL1       -0.4507
     29 C         138.4231  140.2772  161.3545 C.ar    1  UNL1        0.1730
     30 C         138.0679  139.8486  162.7475 C.ar    1  UNL1        0.0401
     31 C         138.5947  138.5537  163.2910 C.ar    1  UNL1        0.0033
     32 C         139.4767  137.6872  162.4417 C.ar    1  UNL1        0.0033
     33 C         139.8319  138.1157  161.0488 C.ar    1  UNL1        0.0406
     34 C         139.3050  139.4108  160.5052 C.ar    1  UNL1        0.1789
     35 C         138.4638  142.8742  161.2932 C.3     1  UNL1        0.2526
     36 O         137.8962  141.5722  160.8110 O.3     1  UNL1       -0.4684
@<TRIPOS>UNITY_ATOM_ATTR
17 1
charge 1
18 1
charge -1
@<TRIPOS>BOND
     1    35    36    1
     2    36    29    1
     3    29    30   ar
     4    30    31   ar
     5    31    32   ar
     6    32    33   ar
     7    33    34   ar
     8    34    28    1
     9    28    22    1
    10    22    23   ar
    11    23    24   ar
    12    24    25   ar
    13    25    26   ar
    14    26    27   ar
    15    27    21    1
    16    21     1    1
    17     1     2    1
    18     2     3    1
    19     3     4    1
    20     4     5    1
    21     5     6    1
    22     4     7    1
    23     7     8    1
    24     8     9    1
    25     9    10   am
    26    10    11    2
    27    10    14    1
    28    14    15   ar
    29    15    16   ar
    30    16    17   ar
    31    17    18    1
    32    17    19   ar
    33    19    20   ar
    34     9    12    1
    35    12    13    1
    36    34    29   ar
    37    27    22   ar
    38     6     1    1
    39    20    14   ar
    40    13     4    1
@<TRIPOS>MOLECULE
*****
 36 40 0 0 0
SMALL
GASTEIGER

@<TRIPOS>ATOM
      1 N         139.5767  139.8706  166.3851 N.3     1  UNL1       -0.2689
      2 C         140.7758  139.3645  165.6396 C.3     1  UNL1        0.0724
      3 C         140.7454  139.2746  164.1427 C.3     1  UNL1        0.0175
      4 C         139.5158  139.6908  163.3912 C.3     1  UNL1        0.0060
      5 C         138.3166  140.1970  164.1366 C.3     1  UNL1        0.0175
      6 C         138.3470  140.2869  165.6336 C.3     1  UNL1        0.0724
      7 C         140.7150  139.1847  162.6456 C.3     1  UNL1        0.0217
      8 C         140.6845  139.0948  161.1487 C.3     1  UNL1        0.0937
      9 N         139.4549  139.5110  160.3972 N.am    1  UNL1       -0.2761
     10 C         139.4245  139.4211  158.9001 C.2     1  UNL1        0.2494
     11 O         138.1948  139.8373  158.1486 O.2     1  UNL1       -0.2699
     12 C         138.2557  140.0171  161.1426 C.3     1  UNL1        0.0937
     13 C         138.2861  140.1071  162.6397 C.3     1  UNL1        0.0217
     14 C         140.6236  138.9149  158.1546 C.ar    1  UNL1        0.0659
     15 C         141.8690  139.7480  158.0832 C.ar    1  UNL1        0.0817
     16 C         143.0682  139.2418  157.3378 C.ar    1  UNL1        0.3019
     17 N         143.0220  137.9026  156.6637 N.ar    1  UNL1       -0.1519
     18 O         144.2212  137.3964  155.9182 O.co2   1  UNL1       -0.6187
     19 C         141.7767  137.0695  156.7351 C.ar    1  UNL1        0.3019
     20 C         140.5774  137.5757  157.4806 C.ar    1  UNL1        0.0817
     21 C         139.6071  139.9606  167.8821 C.3     1  UNL1        0.1022
     22 C         141.3529  141.8395  168.2963 C.ar    1  UNL1        0.1427
     23 C         142.5843  142.3381  168.9929 C.ar    1  UNL1        0.0372
     24 C         143.3012  141.4562  169.9718 C.ar    1  UNL1        0.0031
     25 C         142.7867  140.0758  170.2542 C.ar    1  UNL1       -0.0001
     26 C         141.5554  139.5772  169.5576 C.ar    1  UNL1        0.0001
     27 C         140.8384  140.4591  168.5787 C.ar    1  UNL1        0.0284
     28 O         140.6360  142.7214  167.3174 O.3     1  UNL1       -0.4507
     29 C         140.2084  143.3378  164.8300 C.ar    1  UNL1        0.1730
     30 C         140.6937  143.4364  163.4141 C.ar    1  UNL1        0.0401
     31 C         142.0922  143.0171  163.0697 C.ar    1  UNL1        0.0033
     32 C         143.0053  142.4993  164.1413 C.ar    1  UNL1        0.0033
     33 C         142.5199  142.4007  165.5572 C.ar    1  UNL1        0.0406
     34 C         141.1214  142.8200  165.9015 C.ar    1  UNL1        0.1789
     35 C         137.8105  144.0031  164.0831 C.3     1  UNL1        0.2526
     36 O         138.8098  143.7570  165.1743 O.3     1  UNL1       -0.4684
@<TRIPOS>UNITY_ATOM_ATTR
17 1
charge 1
18 1
charge -1
@<TRIPOS>BOND
     1    35    36    1
     2    36    29    1
     3    29    30   ar
     4    30    31   ar
     5    31    32   ar
     6    32    33   ar
     7    33    34   ar
     8    34    28    1
     9    28    22    1
    10    22    23   ar
    11    23    24   ar
    12    24    25   ar
    13    25    26   ar
    14    26    27   ar
    15    27    21    1
    16    21     1    1
    17     1     2    1
    18     2     3    1
    19     3     4    1
    20     4     5    1
    21     5     6    1
    22     4     7    1
    23     7     8    1
    24     8     9    1
    25     9    10   am
    26    10    11    2
    27    10    14    1
    28    14    15   ar
    29    15    16   ar
    30    16    17   ar
    31    17    18    1
    32    17    19   ar
    33    19    20   ar
    34     9    12    1
    35    12    13    1
    36    34    29   ar
    37    27    22   ar
    38     6     1    1
    39    20    14   ar
    40    13     4    1
@<TRIPOS>MOLECULE
*****
 36 40 0 0 0
SMALL
GASTEIGER

@<TRIPOS>ATOM
      1 N         141.8276  144.1364  160.7741 N.3     1  UNL1       -0.2689
      2 C         141.2651  144.6453  162.0681 C.3     1  UNL1        0.0724
      3 C         141.4197  143.8374  163.3224 C.3     1  UNL1        0.0175
      4 C         142.1367  142.5204  163.2826 C.3     1  UNL1        0.0060
      5 C         142.6992  142.0115  161.9886 C.3     1  UNL1        0.0175
      6 C         142.5447  142.8195  160.7344 C.3     1  UNL1        0.0724
      7 C         141.5742  143.0294  164.5768 C.3     1  UNL1        0.0217
      8 C         141.7287  142.2214  165.8310 C.3     1  UNL1        0.0937
      9 N         142.4458  140.9045  165.7913 N.am    1  UNL1       -0.2761
     10 C         142.6003  140.0965  167.0456 C.2     1  UNL1        0.2494
     11 O         143.3173  138.7796  167.0059 O.2     1  UNL1       -0.2699
     12 C         143.0083  140.3955  164.4973 C.3     1  UNL1        0.0937
     13 C         142.8537  141.2035  163.2429 C.3     1  UNL1        0.0217
     14 C         142.0378  140.6054  168.3397 C.ar    1  UNL1        0.0659
     15 C         142.8789  141.4643  169.2369 C.ar    1  UNL1        0.0817
     16 C         142.3164  141.9732  170.5309 C.ar    1  UNL1        0.3019
     17 N         140.9127  141.6233  170.9277 N.ar    1  UNL1       -0.1519
     18 O         140.3502  142.1323  172.2218 O.co2   1  UNL1       -0.6187
     19 C         140.0716  140.7645  170.0305 C.ar    1  UNL1        0.3019
     20 C         140.6342  140.2556  168.7364 C.ar    1  UNL1        0.0817
     21 C         141.6731  144.9444  159.5197 C.3     1  UNL1        0.1022
     22 C         139.8778  143.6254  158.1829 C.ar    1  UNL1        0.1427
     23 C         139.4297  142.9625  156.9141 C.ar    1  UNL1        0.0372
     24 C         140.3288  142.9556  155.7135 C.ar    1  UNL1        0.0031
     25 C         141.6761  143.6116  155.7816 C.ar    1  UNL1       -0.0001
     26 C         142.1241  144.2745  157.0503 C.ar    1  UNL1        0.0001
     27 C         141.2250  144.2815  158.2510 C.ar    1  UNL1        0.0284
     28 O         138.9787  143.6323  159.3835 O.3     1  UNL1       -0.4507
     29 C         138.3425  142.5903  161.6769 C.ar    1  UNL1        0.1730
     30 C         138.3332  141.4189  162.6137 C.ar    1  UNL1        0.0401
     31 C         138.9508  140.1180  162.1939 C.ar    1  UNL1        0.0033
     32 C         139.5777  139.9885  160.8373 C.ar    1  UNL1        0.0033
     33 C         139.5870  141.1599  159.9005 C.ar    1  UNL1        0.0406
     34 C         138.9694  142.4609  160.3203 C.ar    1  UNL1        0.1789
     35 C         137.7687  144.3125  163.5356 C.3     1  UNL1        0.2526
     36 O         137.7250  143.8913  162.0967 O.3     1  UNL1       -0.4684
@<TRIPOS>UNITY_ATOM_ATTR
17 1
charge 1
18 1
charge -1
@<TRIPOS>BOND
     1    35    36    1
     2    36    29    1
     3    29    30   ar
     4    30    31   ar
     5    31    32   ar
     6    32    33   ar
     7    33    34   ar
     8    34    28    1
     9    28    22    1
    10    22    23   ar
    11    23    24   ar
    12    24    25   ar
    13    25    26   ar
    14    26    27   ar
    15    27    21    1
    16    21     1    1
    17     1     2    1
    18     2     3    1
    19     3     4    1
    20     4     5    1
    21     5     6    1
    22     4     7    1
    23     7     8    1
    24     8     9    1
    25     9    10   am
    26    10    11    2
    27    10    14    1
    28    14    15   ar
    29    15    16   ar
    30    16    17   ar
    31    17    18    1
    32    17    19   ar
    33    19    20   ar
    34     9    12    1
    35    12    13    1
    36    34    29   ar
    37    27    22   ar
    38     6     1    1
    39    20    14   ar
    40    13     4    1
@<TRIPOS>MOLECULE
*****
 36 40 0 0 0
SMALL
GASTEIGER

@<TRIPOS>ATOM
      1 N         142.6015  139.4667  166.2562 N.3     1  UNL1       -0.2689
      2 C         141.6672  138.6626  165.4016 C.3     1  UNL1        0.0724
      3 C         141.8177  138.6750  163.9092 C.3     1  UNL1        0.0175
      4 C         142.9024  139.4915  163.2715 C.3     1  UNL1        0.0060
      5 C         143.8367  140.2956  164.1262 C.3     1  UNL1        0.0175
      6 C         143.6862  140.2832  165.6185 C.3     1  UNL1        0.0724
      7 C         141.9681  138.6873  162.4168 C.3     1  UNL1        0.0217
      8 C         142.1186  138.6997  160.9245 C.3     1  UNL1        0.0937
      9 N         143.2034  139.5162  160.2868 N.am    1  UNL1       -0.2761
     10 C         143.3538  139.5285  158.7943 C.2     1  UNL1        0.2494
     11 O         144.4386  140.3450  158.1566 O.2     1  UNL1       -0.2699
     12 C         144.1376  140.3203  161.1414 C.3     1  UNL1        0.0937
     13 C         143.9872  140.3079  162.6338 C.3     1  UNL1        0.0217
     14 C         142.4196  138.7244  157.9397 C.ar    1  UNL1        0.0659
     15 C         141.1042  139.3061  157.5139 C.ar    1  UNL1        0.0817
     16 C         140.1699  138.5020  156.6592 C.ar    1  UNL1        0.3019
     17 N         140.5510  137.1160  156.2303 N.ar    1  UNL1       -0.1519
     18 O         139.6167  136.3119  155.3757 O.co2   1  UNL1       -0.6187
     19 C         141.8664  136.5343  156.6561 C.ar    1  UNL1        0.3019
     20 C         142.8007  137.3385  157.5108 C.ar    1  UNL1        0.0817
     21 C         142.4510  139.4544  167.7487 C.3     1  UNL1        0.1022
     22 C         140.7444  141.2791  168.4612 C.ar    1  UNL1        0.1427
     23 C         140.4316  142.5500  169.1941 C.ar    1  UNL1        0.0372
     24 C         141.5127  143.2670  169.9471 C.ar    1  UNL1        0.0031
     25 C         142.9066  142.7132  169.9674 C.ar    1  UNL1       -0.0001
     26 C         143.2193  141.4423  169.2346 C.ar    1  UNL1        0.0001
     27 C         142.1382  140.7252  168.4815 C.ar    1  UNL1        0.0284
     28 O         139.6633  140.5621  167.7082 O.3     1  UNL1       -0.4507
     29 C         138.3650  140.1372  165.4983 C.ar    1  UNL1        0.1730
     30 C         138.0996  140.4771  164.0616 C.ar    1  UNL1        0.0401
     31 C         138.8673  141.5819  163.3981 C.ar    1  UNL1        0.0033
     32 C         139.9003  142.3468  164.1714 C.ar    1  UNL1        0.0033
     33 C         140.1657  142.0069  165.6081 C.ar    1  UNL1        0.0406
     34 C         139.3980  140.9020  166.2715 C.ar    1  UNL1        0.1789
     35 C         138.1497  137.6379  166.1744 C.3     1  UNL1        0.2526
     36 O         137.5973  139.0323  166.1617 O.3     1  UNL1       -0.4684
@<TRIPOS>UNITY_ATOM_ATTR
17 1
charge 1
18 1
charge -1
@<TRIPOS>BOND
     1    35    36    1
     2    36    29    1
     3    29    30   ar
     4    30    31   ar
     5    31    32   ar
     6    32    33   ar
     7    33    34   ar
     8    34    28    1
     9    28    22    1
    10    22    23   ar
    11    23    24   ar
    12    24    25   ar
    13    25    26   ar
    14    26    27   ar
    15    27    21    1
    16    21     1    1
    17     1     2    1
    18     2     3    1
    19     3     4    1
    20     4     5    1
    21     5     6    1
    22     4     7    1
    23     7     8    1
    24     8     9    1
    25     9    10   am
    26    10    11    2
    27    10    14    1
    28    14    15   ar
    29    15    16   ar
    30    16    17   ar
    31    17    18    1
    32    17    19   ar
    33    19    20   ar
    34     9    12    1
    35    12    13    1
    36    34    29   ar
    37    27    22   ar
    38     6     1    1
    39    20    14   ar
    40    13     4    1
@<TRIPOS>MOLECULE
*****
 36 40 0 0 0
SMALL
GASTEIGER

@<TRIPOS>ATOM
      1 N         142.4867  141.7555  164.8645 N.3     1  UNL1       -0.2689
      2 C         141.9293  140.8189  163.8340 C.3     1  UNL1        0.0724
      3 C         141.4873  141.3470  162.5014 C.3     1  UNL1        0.0175
      4 C         141.6028  142.8117  162.1994 C.3     1  UNL1        0.0060
      5 C         142.1603  143.7483  163.2299 C.3     1  UNL1        0.0175
      6 C         142.6022  143.2202  164.5625 C.3     1  UNL1        0.0724
      7 C         141.0454  141.8751  161.1688 C.3     1  UNL1        0.0217
      8 C         140.6035  142.4032  159.8362 C.3     1  UNL1        0.0937
      9 N         140.7190  143.8680  159.5342 N.am    1  UNL1       -0.2761
     10 C         140.2770  144.3961  158.2015 C.2     1  UNL1        0.2494
     11 O         140.3925  145.8608  157.8995 O.2     1  UNL1       -0.2699
     12 C         141.2764  144.8046  160.5647 C.3     1  UNL1        0.0937
     13 C         141.7183  144.2764  161.8973 C.3     1  UNL1        0.0217
     14 C         139.7196  143.4595  157.1710 C.ar    1  UNL1        0.0659
     15 C         138.2593  143.1168  157.1807 C.ar    1  UNL1        0.0817
     16 C         137.7019  142.1802  156.1502 C.ar    1  UNL1        0.3019
     17 N         138.6048  141.5862  155.1099 N.ar    1  UNL1       -0.1519
     18 O         138.0474  140.6496  154.0794 O.co2   1  UNL1       -0.6187
     19 C         140.0651  141.9289  155.1002 C.ar    1  UNL1        0.3019
     20 C         140.6225  142.8656  156.1308 C.ar    1  UNL1        0.0817
     21 C         142.9286  141.2273  166.1971 C.3     1  UNL1        0.1022
     22 C         140.8650  141.8418  167.6511 C.ar    1  UNL1        0.1427
     23 C         140.2884  142.4126  168.9128 C.ar    1  UNL1        0.0372
     24 C         141.1988  142.9396  169.9821 C.ar    1  UNL1        0.0031
     25 C         142.6857  142.8959  169.7897 C.ar    1  UNL1       -0.0001
     26 C         143.2624  142.3252  168.5281 C.ar    1  UNL1        0.0001
     27 C         142.3520  141.7981  167.4587 C.ar    1  UNL1        0.0284
     28 O         139.9547  141.3147  166.5818 O.3     1  UNL1       -0.4507
     29 C         138.3917  141.7353  164.5495 C.ar    1  UNL1        0.1730
     30 C         137.7114  142.6849  163.6085 C.ar    1  UNL1        0.0401
     31 C         137.9138  144.1635  163.7588 C.ar    1  UNL1        0.0033
     32 C         138.7965  144.6926  164.8502 C.ar    1  UNL1        0.0033
     33 C         139.4768  143.7430  165.7912 C.ar    1  UNL1        0.0406
     34 C         139.2744  142.2643  165.6408 C.ar    1  UNL1        0.1789
     35 C         138.2068  139.6321  163.0355 C.3     1  UNL1        0.2526
     36 O         138.1893  140.2566  164.3991 O.3     1  UNL1       -0.4684
@<TRIPOS>UNITY_ATOM_ATTR
17 1
charge 1
18 1
charge -1
@<TRIPOS>BOND
     1    35    36    1
     2    36    29    1
     3    29    30   ar
     4    30    31   ar
     5    31    32   ar
     6    32    33   ar
     7    33    34   ar
     8    34    28    1
     9    28    22    1
    10    22    23   ar
    11    23    24   ar
    12    24    25   ar
    13    25    26   ar
    14    26    27   ar
    15    27    21    1
    16    21     1    1
    17     1     2    1
    18     2     3    1
    19     3     4    1
    20     4     5    1
    21     5     6    1
    22     4     7    1
    23     7     8    1
    24     8     9    1
    25     9    10   am
    26    10    11    2
    27    10    14    1
    28    14    15   ar
    29    15    16   ar
    30    16    17   ar
    31    17    18    1
    32    17    19   ar
    33    19    20   ar
    34     9    12    1
    35    12    13    1
    36    34    29   ar
    37    27    22   ar
    38     6     1    1
    39    20    14   ar
    40    13     4    1
@<TRIPOS>MOLECULE
*****
 36 40 0 0 0
SMALL
GASTEIGER

@<TRIPOS>ATOM
      1 N         138.9170  141.6366  160.3912 N.3     1  UNL1       -0.2689
      2 C         138.3506  140.3643  159.8340 C.3     1  UNL1        0.0724
      3 C         139.2045  139.4735  158.9812 C.3     1  UNL1        0.0175
      4 C         140.6247  139.8549  158.6856 C.3     1  UNL1        0.0060
      5 C         141.1912  141.1271  159.2428 C.3     1  UNL1        0.0175
      6 C         140.3373  142.0180  160.0956 C.3     1  UNL1        0.0724
      7 C         140.0583  138.5825  158.1284 C.3     1  UNL1        0.0217
      8 C         140.9122  137.6917  157.2756 C.3     1  UNL1        0.0937
      9 N         142.3324  138.0731  156.9800 N.am    1  UNL1       -0.2761
     10 C         143.1863  137.1822  156.1271 C.2     1  UNL1        0.2494
     11 O         144.6066  137.5636  155.8315 O.2     1  UNL1       -0.2699
     12 C         142.8989  139.3453  157.5372 C.3     1  UNL1        0.0937
     13 C         142.0450  140.2363  158.3900 C.3     1  UNL1        0.0217
     14 C         142.6199  135.9099  155.5700 C.ar    1  UNL1        0.0659
     15 C         142.0314  135.8918  154.1903 C.ar    1  UNL1        0.0817
     16 C         141.4650  134.6196  153.6332 C.ar    1  UNL1        0.3019
     17 N         141.4870  133.3653  154.4556 N.ar    1  UNL1       -0.1519
     18 O         140.9206  132.0931  153.8985 O.co2   1  UNL1       -0.6187
     19 C         142.0755  133.3834  155.8353 C.ar    1  UNL1        0.3019
     20 C         142.6419  134.6557  156.3924 C.ar    1  UNL1        0.0817
     21 C         138.0632  142.5275  161.2440 C.3     1  UNL1        0.1022
     22 C         138.6823  141.9091  163.6903 C.ar    1  UNL1        0.1427
     23 C         139.1540  142.3186  165.0541 C.ar    1  UNL1        0.0372
     24 C         139.4784  143.7559  165.3353 C.ar    1  UNL1        0.0031
     25 C         139.3310  144.7837  164.2527 C.ar    1  UNL1       -0.0001
     26 C         138.8593  144.3742  162.8890 C.ar    1  UNL1        0.0001
     27 C         138.5349  142.9369  162.6077 C.ar    1  UNL1        0.0284
     28 O         138.3579  140.4719  163.4091 O.3     1  UNL1       -0.4507
     29 C         139.3385  138.3781  164.5942 C.ar    1  UNL1        0.1730
     30 C         140.4071  137.3317  164.7091 C.ar    1  UNL1        0.0401
     31 C         141.5636  137.3327  163.7539 C.ar    1  UNL1        0.0033
     32 C         141.6516  138.3801  162.6837 C.ar    1  UNL1        0.0033
     33 C         140.5830  139.4265  162.5688 C.ar    1  UNL1        0.0406
     34 C         139.4265  139.4255  163.5240 C.ar    1  UNL1        0.1789
     35 C         138.3016  139.0733  166.8727 C.3     1  UNL1        0.2526
     36 O         138.1820  138.3771  165.5494 O.3     1  UNL1       -0.4684
@<TRIPOS>UNITY_ATOM_ATTR
17 1
charge 1
18 1
charge -1
@<TRIPOS>BOND
     1    35    36    1
     2    36    29    1
     3    29    30   ar
     4    30    31   ar
     5    31    32   ar
     6    32    33   ar
     7    33    34   ar
     8    34    28    1
     9    28    22    1
    10    22    23   ar
    11    23    24   ar
    12    24    25   ar
    13    25    26   ar
    14    26    27   ar
    15    27    21    1
    16    21     1    1
    17     1     2    1
    18     2     3    1
    19     3     4    1
    20     4     5    1
    21     5     6    1
    22     4     7    1
    23     7     8    1
    24     8     9    1
    25     9    10   am
    26    10    11    2
    27    10    14    1
    28    14    15   ar
    29    15    16   ar
    30    16    17   ar
    31    17    18    1
    32    17    19   ar
    33    19    20   ar
    34     9    12    1
    35    12    13    1
    36    34    29   ar
    37    27    22   ar
    38     6     1    1
    39    20    14   ar
    40    13     4    1
@<TRIPOS>MOLECULE
*****
 36 40 0 0 0
SMALL
GASTEIGER

@<TRIPOS>ATOM
      1 N         140.6249  138.9097  160.5492 N.3     1  UNL1       -0.2689
      2 C         139.8709  139.8945  161.3927 C.3     1  UNL1        0.0724
      3 C         140.1805  140.0213  162.8549 C.3     1  UNL1        0.0175
      4 C         141.2440  139.1633  163.4736 C.3     1  UNL1        0.0060
      5 C         141.9980  138.1785  162.6301 C.3     1  UNL1        0.0175
      6 C         141.6885  138.0517  161.1679 C.3     1  UNL1        0.0724
      7 C         140.4900  140.1482  164.3172 C.3     1  UNL1        0.0217
      8 C         140.7995  140.2750  165.7794 C.3     1  UNL1        0.0937
      9 N         141.8630  139.4170  166.3981 N.am    1  UNL1       -0.2761
     10 C         142.1725  139.5438  167.8604 C.2     1  UNL1        0.2494
     11 O         143.2360  138.6858  168.4790 O.2     1  UNL1       -0.2699
     12 C         142.6170  138.4322  165.5546 C.3     1  UNL1        0.0937
     13 C         142.3075  138.3053  164.0923 C.3     1  UNL1        0.0217
     14 C         141.4185  140.5286  168.7039 C.ar    1  UNL1        0.0659
     15 C         141.9848  141.8962  168.9472 C.ar    1  UNL1        0.0817
     16 C         141.2308  142.8810  169.7907 C.ar    1  UNL1        0.3019
     17 N         139.9104  142.4983  170.3910 N.ar    1  UNL1       -0.1519
     18 O         139.1564  143.4831  171.2345 O.co2   1  UNL1       -0.6187
     19 C         139.3442  141.1307  170.1477 C.ar    1  UNL1        0.3019
     20 C         140.0982  140.1459  169.3041 C.ar    1  UNL1        0.0817
     21 C         140.3154  138.7829  159.0869 C.3     1  UNL1        0.1022
     22 C         142.2293  140.0527  157.8725 C.ar    1  UNL1        0.1427
     23 C         143.3414  140.0718  156.8660 C.ar    1  UNL1        0.0372
     24 C         143.6517  138.8405  156.0676 C.ar    1  UNL1        0.0031
     25 C         142.8499  137.5899  156.2757 C.ar    1  UNL1       -0.0001
     26 C         141.7379  137.5707  157.2821 C.ar    1  UNL1        0.0001
     27 C         141.4275  138.8021  158.0805 C.ar    1  UNL1        0.0284
     28 O         141.9190  141.2840  158.6709 O.3     1  UNL1       -0.4507
     29 C         142.1122  142.5969  160.9045 C.ar    1  UNL1        0.1730
     30 C         142.7957  142.8303  162.2191 C.ar    1  UNL1        0.0401
     31 C         143.9693  141.9843  162.6149 C.ar    1  UNL1        0.0033
     32 C         144.4596  140.9048  161.6960 C.ar    1  UNL1        0.0033
     33 C         143.7762  140.6714  160.3813 C.ar    1  UNL1        0.0406
     34 C         142.6024  141.5174  159.9856 C.ar    1  UNL1        0.1789
     35 C         141.1342  144.6175  159.5965 C.3     1  UNL1        0.2526
     36 O         140.9385  143.4430  160.5087 O.3     1  UNL1       -0.4684
@<TRIPOS>UNITY_ATOM_ATTR
17 1
charge 1
18 1
charge -1
@<TRIPOS>BOND
     1    35    36    1
     2    36    29    1
     3    29    30   ar
     4    30    31   ar
     5    31    32   ar
     6    32    33   ar
     7    33    34   ar
     8    34    28    1
     9    28    22    1
    10    22    23   ar
    11    23    24   ar
    12    24    25   ar
    13    25    26   ar
    14    26    27   ar
    15    27    21    1
    16    21     1    1
    17     1     2    1
    18     2     3    1
    19     3     4    1
    20     4     5    1
    21     5     6    1
    22     4     7    1
    23     7     8    1
    24     8     9    1
    25     9    10   am
    26    10    11    2
    27    10    14    1
    28    14    15   ar
    29    15    16   ar
    30    16    17   ar
    31    17    18    1
    32    17    19   ar
    33    19    20   ar
    34     9    12    1
    35    12    13    1
    36    34    29   ar
    37    27    22   ar
    38     6     1    1
    39    20    14   ar
    40    13     4    1
@<TRIPOS>MOLECULE
*****
 36 40 0 0 0
SMALL
GASTEIGER

@<TRIPOS>ATOM
      1 N         138.6034  140.2703  160.8892 N.3     1  UNL1       -0.2689
      2 C         138.1602  140.9887  162.1291 C.3     1  UNL1        0.0724
      3 C         138.9282  140.8231  163.4069 C.3     1  UNL1        0.0175
      4 C         140.1395  139.9391  163.4447 C.3     1  UNL1        0.0060
      5 C         140.5827  139.2207  162.2047 C.3     1  UNL1        0.0175
      6 C         139.8146  139.3863  160.9270 C.3     1  UNL1        0.0724
      7 C         139.6963  140.6576  164.6847 C.3     1  UNL1        0.0217
      8 C         140.4644  140.4920  165.9624 C.3     1  UNL1        0.0937
      9 N         141.6757  139.6080  166.0002 N.am    1  UNL1       -0.2761
     10 C         142.4438  139.4425  167.2780 C.2     1  UNL1        0.2494
     11 O         143.6550  138.5585  167.3158 O.2     1  UNL1       -0.2699
     12 C         142.1189  138.8896  164.7603 C.3     1  UNL1        0.0937
     13 C         141.3508  139.0552  163.4825 C.3     1  UNL1        0.0217
     14 C         142.0006  140.1609  168.5179 C.ar    1  UNL1        0.0659
     15 C         142.6063  141.4862  168.8739 C.ar    1  UNL1        0.0817
     16 C         142.1631  142.2046  170.1138 C.ar    1  UNL1        0.3019
     17 N         141.1141  141.5977  170.9978 N.ar    1  UNL1       -0.1519
     18 O         140.6709  142.3161  172.2377 O.co2   1  UNL1       -0.6187
     19 C         140.5084  140.2724  170.6418 C.ar    1  UNL1        0.3019
     20 C         140.9517  139.5540  169.4018 C.ar    1  UNL1        0.0817
     21 C         137.8353  140.4358  159.6114 C.3     1  UNL1        0.1022
     22 C         139.0126  142.4505  158.4691 C.ar    1  UNL1        0.1427
     23 C         139.6761  143.0572  157.2684 C.ar    1  UNL1        0.0372
     24 C         139.8258  142.2558  156.0093 C.ar    1  UNL1        0.0031
     25 C         139.3120  140.8477  155.9509 C.ar    1  UNL1       -0.0001
     26 C         138.6485  140.2411  157.1516 C.ar    1  UNL1        0.0001
     27 C         138.4988  141.0425  158.4107 C.ar    1  UNL1        0.0284
     28 O         138.8629  143.2519  159.7282 O.3     1  UNL1       -0.4507
     29 C         139.8920  144.2431  161.8981 C.ar    1  UNL1        0.1730
     30 C         141.0479  144.3752  162.8449 C.ar    1  UNL1        0.0401
     31 C         142.3305  143.6482  162.5688 C.ar    1  UNL1        0.0033
     32 C         142.4573  142.7890  161.3457 C.ar    1  UNL1        0.0033
     33 C         141.3014  142.6569  160.3989 C.ar    1  UNL1        0.0406
     34 C         140.0188  143.3840  160.6751 C.ar    1  UNL1        0.1789
     35 C         137.6613  144.4502  163.2138 C.3     1  UNL1        0.2526
     36 O         138.6094  144.9703  162.1743 O.3     1  UNL1       -0.4684
@<TRIPOS>UNITY_ATOM_ATTR
17 1
charge 1
18 1
charge -1
@<TRIPOS>BOND
     1    35    36    1
     2    36    29    1
     3    29    30   ar
     4    30    31   ar
     5    31    32   ar
     6    32    33   ar
     7    33    34   ar
     8    34    28    1
     9    28    22    1
    10    22    23   ar
    11    23    24   ar
    12    24    25   ar
    13    25    26   ar
    14    26    27   ar
    15    27    21    1
    16    21     1    1
    17     1     2    1
    18     2     3    1
    19     3     4    1
    20     4     5    1
    21     5     6    1
    22     4     7    1
    23     7     8    1
    24     8     9    1
    25     9    10   am
    26    10    11    2
    27    10    14    1
    28    14    15   ar
    29    15    16   ar
    30    16    17   ar
    31    17    18    1
    32    17    19   ar
    33    19    20   ar
    34     9    12    1
    35    12    13    1
    36    34    29   ar
    37    27    22   ar
    38     6     1    1
    39    20    14   ar
    40    13     4    1
