@<TRIPOS>MOLECULE
*****
 35 38 0 0 0
SMALL
GASTEIGER

@<TRIPOS>ATOM
      1 C         141.0200  140.3343  164.6193 C.2     1  UNL1        0.1397
      2 C         140.7995  140.2478  163.1382 C.2     1  UNL1        0.1355
      3 N         140.5694  141.4968  162.3400 N.pl3   1  UNL1       -0.1998
      4 C         140.5598  142.8322  163.0230 C.2     1  UNL1        0.3442
      5 N         140.7803  142.9187  164.5041 N.2     1  UNL1       -0.0580
      6 C         141.0104  141.6697  165.3023 C.3     1  UNL1        0.2695
      7 H         140.4246  141.4401  161.3678 H       1  UNL1        0.2983
      8 C         141.2310  141.7562  166.7835 C.ar    1  UNL1        0.0414
      9 C         140.1163  141.4184  167.7287 C.ar    1  UNL1        0.0019
     10 C         140.3368  141.5048  169.2099 C.ar    1  UNL1        0.0113
     11 C         141.6720  141.9291  169.7459 C.ar    1  UNL1        0.0585
     12 CL        141.8925  142.0156  171.2270 Cl      1  UNL1       -0.0822
     13 C         142.7867  142.2669  168.8007 C.ar    1  UNL1        0.0226
     14 C         142.5661  142.1804  167.3195 C.ar    1  UNL1        0.0589
     15 CL        143.6808  142.5182  166.3743 Cl      1  UNL1       -0.0824
     16 C         140.3296  144.0812  162.2248 C.ar    1  UNL1        0.1931
     17 N         139.6529  145.3276  162.7133 N.ar    1  UNL1       -0.2297
     18 C         139.6408  146.3198  161.5884 C.ar    1  UNL1        0.1067
     19 C         140.3101  145.6867  160.4047 C.ar    1  UNL1        0.0577
     20 S         140.7358  144.3032  160.7980 S.2     1  UNL1       -0.0586
     21 C         141.2502  139.0853  165.4175 C.2     1  UNL1        0.3447
     22 O         142.6357  138.7269  165.8667 O.2     1  UNL1       -0.2450
     23 O         140.0948  138.1946  165.7664 O.3     1  UNL1       -0.4455
     24 C         137.7598  138.5582  166.8461 C.3     1  UNL1        0.0513
     25 C         138.6918  138.7184  165.6816 C.3     1  UNL1        0.2089
     26 C         140.8091  138.9123  162.4551 C.3     1  UNL1        0.1407
     27 N         140.7679  138.8355  160.9577 N.3     1  UNL1       -0.2584
     28 C         142.0325  138.6094  160.1832 C.3     1  UNL1        0.1052
     29 C         141.9913  138.5325  158.6857 C.3     1  UNL1        0.1595
     30 O         140.6856  138.6819  157.9627 O.3     1  UNL1       -0.3505
     31 C         139.4210  138.9081  158.7372 C.3     1  UNL1        0.1637
     32 C         139.4622  138.9849  160.2346 C.3     1  UNL1        0.1247
     33 C         138.1976  139.2110  161.0090 C.2     1  UNL1        0.0673
     34 O         137.6690  140.6029  161.1921 O.co2   1  UNL1       -0.5477
     35 O         137.4617  138.0455  161.6004 O.co2   1  UNL1       -0.5477
@<TRIPOS>UNITY_ATOM_ATTR
34 1
charge -1
@<TRIPOS>BOND
     1    24    25    1
     2    25    23    1
     3    23    21    1
     4    21    22    2
     5    21     1    1
     6     1     2    2
     7     2    26    1
     8    26    27    1
     9    27    28    1
    10    28    29    1
    11    29    30    1
    12    30    31    1
    13    31    32    1
    14    32    33    1
    15    33    34   ar
    16    33    35   ar
    17     2     3    1
    18     3     4    1
    19     4    16    1
    20    16    17   ar
    21    17    18   ar
    22    18    19   ar
    23    19    20   ar
    24     4     5    2
    25     5     6    1
    26     6     8    1
    27     8     9   ar
    28     9    10   ar
    29    10    11   ar
    30    11    12    1
    31    11    13   ar
    32    13    14   ar
    33    14    15    1
    34     6     1    1
    35    14     8   ar
    36    32    27    1
    37    20    16   ar
    38     3     7    1
@<TRIPOS>MOLECULE
*****
 35 38 0 0 0
SMALL
GASTEIGER

@<TRIPOS>ATOM
      1 C         141.0368  140.2974  164.4913 C.2     1  UNL1        0.1397
      2 C         140.8268  140.2131  163.0085 C.2     1  UNL1        0.1355
      3 N         140.5938  141.4625  162.2117 N.pl3   1  UNL1       -0.1998
      4 C         140.5708  142.7961  162.8978 C.2     1  UNL1        0.3442
      5 N         140.7809  142.8804  164.3806 N.2     1  UNL1       -0.0580
      6 C         141.0139  141.6310  165.1773 C.3     1  UNL1        0.2695
      7 H         140.4559  141.4071  161.2385 H       1  UNL1        0.2983
      8 C         141.2239  141.7154  166.6602 C.ar    1  UNL1        0.0414
      9 C         140.1007  141.3822  167.5969 C.ar    1  UNL1        0.0019
     10 C         140.3107  141.4665  169.0797 C.ar    1  UNL1        0.0113
     11 C         141.6440  141.8840  169.6259 C.ar    1  UNL1        0.0585
     12 CL        141.8540  141.9684  171.1087 Cl      1  UNL1       -0.0822
     13 C         142.7672  142.2172  168.6892 C.ar    1  UNL1        0.0226
     14 C         142.5571  142.1328  167.2063 C.ar    1  UNL1        0.0589
     15 CL        143.6803  142.4660  166.2696 Cl      1  UNL1       -0.0824
     16 C         140.3378  144.0455  162.1011 C.ar    1  UNL1        0.1931
     17 N         139.7250  145.3156  162.6121 N.ar    1  UNL1       -0.2297
     18 C         139.6851  146.2993  161.4803 C.ar    1  UNL1        0.1067
     19 C         140.2734  145.6370  160.2698 C.ar    1  UNL1        0.0577
     20 S         140.6768  144.2441  160.6535 S.2     1  UNL1       -0.0586
     21 C         141.2698  139.0480  165.2880 C.2     1  UNL1        0.3447
     22 O         142.6568  138.6902  165.7333 O.2     1  UNL1       -0.2450
     23 O         140.1159  138.1564  165.6393 O.3     1  UNL1       -0.4455
     24 C         137.8071  138.5107  166.7768 C.3     1  UNL1        0.0513
     25 C         138.7150  138.6908  165.5964 C.3     1  UNL1        0.2089
     26 C         140.8498  138.8794  162.3223 C.3     1  UNL1        0.1407
     27 N         140.9397  138.8068  160.8268 N.3     1  UNL1       -0.2584
     28 C         139.6881  138.7451  160.0023 C.3     1  UNL1        0.1052
     29 C         139.7781  138.6725  158.5067 C.3     1  UNL1        0.1595
     30 O         141.1195  138.6616  157.8357 O.3     1  UNL1       -0.3505
     31 C         142.3711  138.7233  158.6602 C.3     1  UNL1        0.1637
     32 C         142.2812  138.7958  160.1557 C.3     1  UNL1        0.1247
     33 C         143.5327  138.8575  160.9802 C.2     1  UNL1        0.0673
     34 O         144.2130  137.5904  161.4068 O.co2   1  UNL1       -0.5477
     35 O         144.1040  140.1861  161.3781 O.co2   1  UNL1       -0.5477
@<TRIPOS>UNITY_ATOM_ATTR
34 1
charge -1
@<TRIPOS>BOND
     1    24    25    1
     2    25    23    1
     3    23    21    1
     4    21    22    2
     5    21     1    1
     6     1     2    2
     7     2    26    1
     8    26    27    1
     9    27    28    1
    10    28    29    1
    11    29    30    1
    12    30    31    1
    13    31    32    1
    14    32    33    1
    15    33    34   ar
    16    33    35   ar
    17     2     3    1
    18     3     4    1
    19     4    16    1
    20    16    17   ar
    21    17    18   ar
    22    18    19   ar
    23    19    20   ar
    24     4     5    2
    25     5     6    1
    26     6     8    1
    27     8     9   ar
    28     9    10   ar
    29    10    11   ar
    30    11    12    1
    31    11    13   ar
    32    13    14   ar
    33    14    15    1
    34     6     1    1
    35    14     8   ar
    36    32    27    1
    37    20    16   ar
    38     3     7    1
@<TRIPOS>MOLECULE
*****
 35 38 0 0 0
SMALL
GASTEIGER

@<TRIPOS>ATOM
      1 C         140.3786  139.5546  164.0624 C.2     1  UNL1        0.1397
      2 C         140.3532  139.6921  162.5690 C.2     1  UNL1        0.1355
      3 N         140.2857  141.0532  161.9421 N.pl3   1  UNL1       -0.1998
      4 C         140.2437  142.2767  162.8087 C.2     1  UNL1        0.3442
      5 N         140.2691  142.1393  164.3021 N.2     1  UNL1       -0.0580
      6 C         140.3366  140.7782  164.9290 C.3     1  UNL1        0.2695
      7 H         140.2690  141.1434  160.9619 H       1  UNL1        0.2983
      8 C         140.3621  140.6408  166.4225 C.ar    1  UNL1        0.0414
      9 C         139.1763  140.0716  167.1436 C.ar    1  UNL1        0.0019
     10 C         139.2018  139.9341  168.6370 C.ar    1  UNL1        0.0113
     11 C         140.4130  140.3659  169.4095 C.ar    1  UNL1        0.0585
     12 CL        140.4384  140.2285  170.9029 Cl      1  UNL1       -0.0822
     13 C         141.5987  140.9352  168.6884 C.ar    1  UNL1        0.0226
     14 C         141.5733  141.0726  167.1948 C.ar    1  UNL1        0.0589
     15 CL        142.7590  141.6418  166.4738 Cl      1  UNL1       -0.0824
     16 C         140.1762  143.6378  162.1818 C.ar    1  UNL1        0.1931
     17 N         140.6359  143.9957  160.7996 N.ar    1  UNL1       -0.2297
     18 C         140.3810  145.4590  160.5906 C.ar    1  UNL1        0.1067
     19 C         139.7637  146.0056  161.8437 C.ar    1  UNL1        0.0577
     20 S         139.6371  144.8800  162.8271 S.2     1  UNL1       -0.0586
     21 C         140.4461  138.1936  164.6893 C.2     1  UNL1        0.3447
     22 O         139.1840  137.4887  165.0894 O.2     1  UNL1       -0.2450
     23 O         141.7757  137.5374  164.9160 O.3     1  UNL1       -0.4455
     24 C         143.8609  138.1890  166.3222 C.3     1  UNL1        0.0513
     25 C         143.0040  138.3772  165.1055 C.3     1  UNL1        0.2089
     26 C         140.3952  138.4685  161.7023 C.3     1  UNL1        0.1407
     27 N         140.8230  138.5790  160.2689 N.3     1  UNL1       -0.2584
     28 C         139.8034  138.4868  159.1726 C.3     1  UNL1        0.1052
     29 C         140.2313  138.5973  157.7391 C.3     1  UNL1        0.1595
     30 O         141.6788  138.8000  157.4020 O.3     1  UNL1       -0.3505
     31 C         142.6984  138.8922  158.4983 C.3     1  UNL1        0.1637
     32 C         142.2706  138.7816  159.9317 C.3     1  UNL1        0.1247
     33 C         143.2902  138.8738  161.0280 C.2     1  UNL1        0.0673
     34 O         144.0615  137.6547  161.4393 O.co2   1  UNL1       -0.5477
     35 O         143.5386  140.1849  161.7130 O.co2   1  UNL1       -0.5477
@<TRIPOS>UNITY_ATOM_ATTR
34 1
charge -1
@<TRIPOS>BOND
     1    24    25    1
     2    25    23    1
     3    23    21    1
     4    21    22    2
     5    21     1    1
     6     1     2    2
     7     2    26    1
     8    26    27    1
     9    27    28    1
    10    28    29    1
    11    29    30    1
    12    30    31    1
    13    31    32    1
    14    32    33    1
    15    33    34   ar
    16    33    35   ar
    17     2     3    1
    18     3     4    1
    19     4    16    1
    20    16    17   ar
    21    17    18   ar
    22    18    19   ar
    23    19    20   ar
    24     4     5    2
    25     5     6    1
    26     6     8    1
    27     8     9   ar
    28     9    10   ar
    29    10    11   ar
    30    11    12    1
    31    11    13   ar
    32    13    14   ar
    33    14    15    1
    34     6     1    1
    35    14     8   ar
    36    32    27    1
    37    20    16   ar
    38     3     7    1
@<TRIPOS>MOLECULE
*****
 35 38 0 0 0
SMALL
GASTEIGER

@<TRIPOS>ATOM
      1 C         140.1274  139.8288  164.0273 C.2     1  UNL1        0.1397
      2 C         139.9862  140.0044  162.5444 C.2     1  UNL1        0.1355
      3 N         139.9434  141.3822  161.9529 N.pl3   1  UNL1       -0.1998
      4 C         140.0419  142.5844  162.8445 C.2     1  UNL1        0.3442
      5 N         140.1831  142.4089  164.3274 N.2     1  UNL1       -0.0580
      6 C         140.2259  141.0311  164.9188 C.3     1  UNL1        0.2695
      7 H         139.8507  141.4974  160.9796 H       1  UNL1        0.2983
      8 C         140.3671  140.8555  166.4019 C.ar    1  UNL1        0.0414
      9 C         139.2475  140.2500  167.1954 C.ar    1  UNL1        0.0019
     10 C         139.3887  140.0745  168.6784 C.ar    1  UNL1        0.0113
     11 C         140.6496  140.5044  169.3678 C.ar    1  UNL1        0.0585
     12 CL        140.7908  140.3289  170.8508 Cl      1  UNL1       -0.0822
     13 C         141.7693  141.1099  168.5743 C.ar    1  UNL1        0.0226
     14 C         141.6280  141.2855  167.0913 C.ar    1  UNL1        0.0589
     15 CL        142.7477  141.8910  166.2977 Cl      1  UNL1       -0.0824
     16 C         139.9991  143.9623  162.2530 C.ar    1  UNL1        0.1931
     17 N         139.4694  145.1942  162.9251 N.ar    1  UNL1       -0.2297
     18 C         139.6215  146.3434  161.9731 C.ar    1  UNL1        0.1067
     19 C         140.2452  145.8217  160.7127 C.ar    1  UNL1        0.0577
     20 S         140.4786  144.3501  160.8857 S.2     1  UNL1       -0.0586
     21 C         140.1702  138.4510  164.6187 C.2     1  UNL1        0.3447
     22 O         138.8947  137.7536  164.9886 O.2     1  UNL1       -0.2450
     23 O         141.4884  137.7705  164.8403 O.3     1  UNL1       -0.4455
     24 C         143.7632  138.4880  165.8703 C.3     1  UNL1        0.0513
     25 C         142.7624  138.5576  164.7550 C.3     1  UNL1        0.2089
     26 C         139.8877  138.8021  161.6528 C.3     1  UNL1        0.1407
     27 N         141.0026  138.4796  160.7026 N.3     1  UNL1       -0.2584
     28 C         142.1835  137.6839  161.1743 C.3     1  UNL1        0.1052
     29 C         143.2985  137.3615  160.2241 C.3     1  UNL1        0.1595
     30 O         143.2326  137.8347  158.8022 O.3     1  UNL1       -0.3505
     31 C         142.0518  138.6304  158.3305 C.3     1  UNL1        0.1637
     32 C         140.9368  138.9529  159.2807 C.3     1  UNL1        0.1247
     33 C         139.7560  139.7486  158.8090 C.2     1  UNL1        0.0673
     34 O         139.6616  141.2114  159.1278 O.co2   1  UNL1       -0.5477
     35 O         138.6696  139.0817  158.0186 O.co2   1  UNL1       -0.5477
@<TRIPOS>UNITY_ATOM_ATTR
34 1
charge -1
@<TRIPOS>BOND
     1    24    25    1
     2    25    23    1
     3    23    21    1
     4    21    22    2
     5    21     1    1
     6     1     2    2
     7     2    26    1
     8    26    27    1
     9    27    28    1
    10    28    29    1
    11    29    30    1
    12    30    31    1
    13    31    32    1
    14    32    33    1
    15    33    34   ar
    16    33    35   ar
    17     2     3    1
    18     3     4    1
    19     4    16    1
    20    16    17   ar
    21    17    18   ar
    22    18    19   ar
    23    19    20   ar
    24     4     5    2
    25     5     6    1
    26     6     8    1
    27     8     9   ar
    28     9    10   ar
    29    10    11   ar
    30    11    12    1
    31    11    13   ar
    32    13    14   ar
    33    14    15    1
    34     6     1    1
    35    14     8   ar
    36    32    27    1
    37    20    16   ar
    38     3     7    1
@<TRIPOS>MOLECULE
*****
 35 38 0 0 0
SMALL
GASTEIGER

@<TRIPOS>ATOM
      1 C         141.2923  139.7570  164.0210 C.2     1  UNL1        0.1397
      2 C         141.4918  139.9671  162.5493 C.2     1  UNL1        0.1355
      3 N         141.2153  141.3091  161.9389 N.pl3   1  UNL1       -0.1998
      4 C         140.7393  142.4411  162.8002 C.2     1  UNL1        0.3442
      5 N         140.5397  142.2310  164.2720 N.2     1  UNL1       -0.0580
      6 C         140.8162  140.8890  164.8823 C.3     1  UNL1        0.2695
      7 H         141.3463  141.4470  160.9729 H       1  UNL1        0.2983
      8 C         140.6166  140.6790  166.3541 C.ar    1  UNL1        0.0414
      9 C         141.6976  141.0644  167.3201 C.ar    1  UNL1        0.0019
     10 C         141.4981  140.8544  168.7918 C.ar    1  UNL1        0.0113
     11 C         140.2175  140.2590  169.2977 C.ar    1  UNL1        0.0585
     12 CL        140.0180  140.0490  170.7694 Cl      1  UNL1       -0.0822
     13 C         139.1366  139.8736  168.3318 C.ar    1  UNL1        0.0226
     14 C         139.3362  140.0836  166.8599 C.ar    1  UNL1        0.0589
     15 CL        138.2552  139.6983  165.8940 Cl      1  UNL1       -0.0824
     16 C         140.4627  143.7831  162.1899 C.ar    1  UNL1        0.1931
     17 N         139.7651  144.9296  162.8599 N.ar    1  UNL1       -0.2297
     18 C         139.7065  146.0693  161.8864 C.ar    1  UNL1        0.1067
     19 C         140.3679  145.6272  160.6148 C.ar    1  UNL1        0.0577
     20 S         140.8353  144.2143  160.8023 S.2     1  UNL1       -0.0586
     21 C         141.5688  138.4150  164.6313 C.2     1  UNL1        0.3447
     22 O         140.4828  137.3824  164.6959 O.2     1  UNL1       -0.2450
     23 O         142.9312  138.1057  165.1771 O.3     1  UNL1       -0.4455
     24 C         144.8937  139.4355  164.1138 C.3     1  UNL1        0.0513
     25 C         143.9666  139.1873  165.2667 C.3     1  UNL1        0.2089
     26 C         141.9679  138.8351  161.6878 C.3     1  UNL1        0.1407
     27 N         141.5412  138.7544  160.2521 N.3     1  UNL1       -0.2584
     28 C         142.5730  138.6640  159.1670 C.3     1  UNL1        0.1052
     29 C         142.1462  138.5833  157.7312 C.3     1  UNL1        0.1595
     30 O         140.6879  138.5930  157.3805 O.3     1  UNL1       -0.3505
     31 C         139.6562  138.6835  158.4656 C.3     1  UNL1        0.1637
     32 C         140.0828  138.7642  159.9013 C.3     1  UNL1        0.1247
     33 C         139.0511  138.8546  160.9864 C.2     1  UNL1        0.0673
     34 O         138.7439  137.6537  161.8312 O.co2   1  UNL1       -0.5477
     35 O         138.3266  140.1459  161.2267 O.co2   1  UNL1       -0.5477
@<TRIPOS>UNITY_ATOM_ATTR
34 1
charge -1
@<TRIPOS>BOND
     1    24    25    1
     2    25    23    1
     3    23    21    1
     4    21    22    2
     5    21     1    1
     6     1     2    2
     7     2    26    1
     8    26    27    1
     9    27    28    1
    10    28    29    1
    11    29    30    1
    12    30    31    1
    13    31    32    1
    14    32    33    1
    15    33    34   ar
    16    33    35   ar
    17     2     3    1
    18     3     4    1
    19     4    16    1
    20    16    17   ar
    21    17    18   ar
    22    18    19   ar
    23    19    20   ar
    24     4     5    2
    25     5     6    1
    26     6     8    1
    27     8     9   ar
    28     9    10   ar
    29    10    11   ar
    30    11    12    1
    31    11    13   ar
    32    13    14   ar
    33    14    15    1
    34     6     1    1
    35    14     8   ar
    36    32    27    1
    37    20    16   ar
    38     3     7    1
@<TRIPOS>MOLECULE
*****
 35 38 0 0 0
SMALL
GASTEIGER

@<TRIPOS>ATOM
      1 C         142.8588  140.2208  159.4360 C.2     1  UNL1        0.1397
      2 C         143.2309  139.2405  158.3635 C.2     1  UNL1        0.1355
      3 N         144.2270  139.6240  157.3096 N.pl3   1  UNL1       -0.1998
      4 C         144.8510  140.9879  157.3283 C.2     1  UNL1        0.3442
      5 N         144.4788  141.9683  158.4008 N.2     1  UNL1       -0.0580
      6 C         143.4827  141.5848  159.4547 C.3     1  UNL1        0.2695
      7 H         144.4713  138.9805  156.6057 H       1  UNL1        0.2983
      8 C         143.1106  142.5652  160.5272 C.ar    1  UNL1        0.0414
      9 C         141.9806  143.5264  160.3053 C.ar    1  UNL1        0.0019
     10 C         141.6084  144.5069  161.3778 C.ar    1  UNL1        0.0113
     11 C         142.3662  144.5261  162.6722 C.ar    1  UNL1        0.0585
     12 CL        141.9941  145.5065  163.7447 Cl      1  UNL1       -0.0822
     13 C         143.4962  143.5649  162.8941 C.ar    1  UNL1        0.0226
     14 C         143.8684  142.5844  161.8215 C.ar    1  UNL1        0.0589
     15 CL        144.9983  141.6232  162.0434 Cl      1  UNL1       -0.0824
     16 C         145.8471  141.3715  156.2744 C.ar    1  UNL1        0.1931
     17 N         145.9244  140.8066  154.8869 N.ar    1  UNL1       -0.2297
     18 C         147.0658  141.4733  154.1779 C.ar    1  UNL1        0.1067
     19 C         147.6940  142.4502  155.1272 C.ar    1  UNL1        0.0577
     20 S         146.9408  142.3872  156.4228 S.2     1  UNL1       -0.0586
     21 C         141.8627  139.8373  160.4899 C.2     1  UNL1        0.3447
     22 O         140.4023  140.1025  160.2736 O.2     1  UNL1       -0.2450
     23 O         142.3270  139.1886  161.7602 O.3     1  UNL1       -0.4455
     24 C         141.2260  137.4147  163.3065 C.3     1  UNL1        0.0513
     25 C         141.9664  137.7615  162.0488 C.3     1  UNL1        0.2089
     26 C         142.6070  137.8765  158.3449 C.3     1  UNL1        0.1407
     27 N         141.7037  137.4803  157.2148 N.3     1  UNL1       -0.2584
     28 C         140.2699  137.9208  157.2110 C.3     1  UNL1        0.1052
     29 C         139.3666  137.5246  156.0808 C.3     1  UNL1        0.1595
     30 O         139.8972  136.6879  154.9546 O.3     1  UNL1       -0.3505
     31 C         141.3310  136.2474  154.9584 C.3     1  UNL1        0.1637
     32 C         142.2343  136.6436  156.0885 C.3     1  UNL1        0.1247
     33 C         143.6682  136.2031  156.0923 C.2     1  UNL1        0.0673
     34 O         144.7425  137.1420  155.6292 O.co2   1  UNL1       -0.5477
     35 O         144.0278  134.8238  156.5593 O.co2   1  UNL1       -0.5477
@<TRIPOS>UNITY_ATOM_ATTR
34 1
charge -1
@<TRIPOS>BOND
     1    24    25    1
     2    25    23    1
     3    23    21    1
     4    21    22    2
     5    21     1    1
     6     1     2    2
     7     2    26    1
     8    26    27    1
     9    27    28    1
    10    28    29    1
    11    29    30    1
    12    30    31    1
    13    31    32    1
    14    32    33    1
    15    33    34   ar
    16    33    35   ar
    17     2     3    1
    18     3     4    1
    19     4    16    1
    20    16    17   ar
    21    17    18   ar
    22    18    19   ar
    23    19    20   ar
    24     4     5    2
    25     5     6    1
    26     6     8    1
    27     8     9   ar
    28     9    10   ar
    29    10    11   ar
    30    11    12    1
    31    11    13   ar
    32    13    14   ar
    33    14    15    1
    34     6     1    1
    35    14     8   ar
    36    32    27    1
    37    20    16   ar
    38     3     7    1
@<TRIPOS>MOLECULE
*****
 35 38 0 0 0
SMALL
GASTEIGER

@<TRIPOS>ATOM
      1 C         142.9933  140.2550  159.4572 C.2     1  UNL1        0.1397
      2 C         143.3191  139.2733  158.3709 C.2     1  UNL1        0.1355
      3 N         144.2876  139.6469  157.2881 N.pl3   1  UNL1       -0.1998
      4 C         144.9303  141.0022  157.2916 C.2     1  UNL1        0.3442
      5 N         144.6045  141.9839  158.3779 N.2     1  UNL1       -0.0580
      6 C         143.6360  141.6103  159.4607 C.3     1  UNL1        0.2695
      7 H         144.5014  139.0026  156.5751 H       1  UNL1        0.2983
      8 C         143.3102  142.5921  160.5470 C.ar    1  UNL1        0.0414
      9 C         144.1726  142.6688  161.7719 C.ar    1  UNL1        0.0019
     10 C         143.8469  143.6505  162.8582 C.ar    1  UNL1        0.0113
     11 C         142.6587  144.5556  162.7197 C.ar    1  UNL1        0.0585
     12 CL        142.3330  145.5373  163.8060 Cl      1  UNL1       -0.0822
     13 C         141.7963  144.4788  161.4948 C.ar    1  UNL1        0.0226
     14 C         142.1220  143.4970  160.4084 C.ar    1  UNL1        0.0589
     15 CL        141.2596  143.4203  159.1836 Cl      1  UNL1       -0.0824
     16 C         145.8988  141.3759  156.2088 C.ar    1  UNL1        0.1931
     17 N         147.1130  142.2413  156.3720 N.ar    1  UNL1       -0.2297
     18 C         147.7877  142.3500  155.0367 C.ar    1  UNL1        0.1067
     19 C         146.9906  141.5516  154.0482 C.ar    1  UNL1        0.0577
     20 S         145.8231  140.9496  154.7726 S.2     1  UNL1       -0.0586
     21 C         142.0248  139.8814  160.5400 C.2     1  UNL1        0.3447
     22 O         140.5901  140.3079  160.4428 O.2     1  UNL1       -0.2450
     23 O         142.4911  139.0813  161.7199 O.3     1  UNL1       -0.4455
     24 C         144.4227  139.3825  163.4313 C.3     1  UNL1        0.0513
     25 C         143.9521  139.0193  162.0540 C.3     1  UNL1        0.2089
     26 C         142.6764  137.9179  158.3673 C.3     1  UNL1        0.1407
     27 N         141.7456  137.5322  157.2562 N.3     1  UNL1       -0.2584
     28 C         140.3174  137.9900  157.2812 C.3     1  UNL1        0.1052
     29 C         139.3865  137.6042  156.1700 C.3     1  UNL1        0.1595
     30 O         139.8839  136.7606  155.0338 O.3     1  UNL1       -0.3505
     31 C         141.3121  136.3028  155.0088 C.3     1  UNL1        0.1637
     32 C         142.2429  136.6885  156.1199 C.3     1  UNL1        0.1247
     33 C         143.6711  136.2307  156.0949 C.2     1  UNL1        0.0673
     34 O         144.0213  134.8413  156.5389 O.co2   1  UNL1       -0.5477
     35 O         144.7492  137.1622  155.6258 O.co2   1  UNL1       -0.5477
@<TRIPOS>UNITY_ATOM_ATTR
34 1
charge -1
@<TRIPOS>BOND
     1    24    25    1
     2    25    23    1
     3    23    21    1
     4    21    22    2
     5    21     1    1
     6     1     2    2
     7     2    26    1
     8    26    27    1
     9    27    28    1
    10    28    29    1
    11    29    30    1
    12    30    31    1
    13    31    32    1
    14    32    33    1
    15    33    34   ar
    16    33    35   ar
    17     2     3    1
    18     3     4    1
    19     4    16    1
    20    16    17   ar
    21    17    18   ar
    22    18    19   ar
    23    19    20   ar
    24     4     5    2
    25     5     6    1
    26     6     8    1
    27     8     9   ar
    28     9    10   ar
    29    10    11   ar
    30    11    12    1
    31    11    13   ar
    32    13    14   ar
    33    14    15    1
    34     6     1    1
    35    14     8   ar
    36    32    27    1
    37    20    16   ar
    38     3     7    1
@<TRIPOS>MOLECULE
*****
 35 38 0 0 0
SMALL
GASTEIGER

@<TRIPOS>ATOM
      1 C         142.4533  142.6538  163.6665 C.2     1  UNL1        0.1397
      2 C         142.2924  142.5648  162.1779 C.2     1  UNL1        0.1355
      3 N         141.1792  141.7482  161.5913 N.pl3   1  UNL1       -0.1998
      4 C         140.2270  141.0206  162.4934 C.2     1  UNL1        0.3442
      5 N         140.3879  141.1096  163.9820 N.2     1  UNL1       -0.0580
      6 C         141.5011  141.9262  164.5686 C.3     1  UNL1        0.2695
      7 H         141.0736  141.6898  160.6142 H       1  UNL1        0.2983
      8 C         141.6620  142.0151  166.0574 C.ar    1  UNL1        0.0414
      9 C         142.7458  141.2367  166.7424 C.ar    1  UNL1        0.0019
     10 C         142.9067  141.3256  168.2311 C.ar    1  UNL1        0.0113
     11 C         141.9838  142.1930  169.0348 C.ar    1  UNL1        0.0585
     12 CL        142.1447  142.2819  170.5234 Cl      1  UNL1       -0.0822
     13 C         140.9000  142.9715  168.3497 C.ar    1  UNL1        0.0226
     14 C         140.7391  142.8825  166.8610 C.ar    1  UNL1        0.0589
     15 CL        139.6553  143.6610  166.1759 Cl      1  UNL1       -0.0824
     16 C         139.1139  140.2040  161.9068 C.ar    1  UNL1        0.1931
     17 N         138.7032  138.8295  162.3450 N.ar    1  UNL1       -0.2297
     18 C         137.5515  138.3945  161.4881 C.ar    1  UNL1        0.1067
     19 C         137.2503  139.5002  160.5202 C.ar    1  UNL1        0.0577
     20 S         138.2160  140.6185  160.7790 S.2     1  UNL1       -0.0586
     21 C         143.5664  143.4704  164.2531 C.2     1  UNL1        0.3447
     22 O         143.4221  144.9586  164.3731 O.2     1  UNL1       -0.2450
     23 O         144.8239  142.7988  164.7197 O.3     1  UNL1       -0.4455
     24 C         145.2430  140.3199  164.0646 C.3     1  UNL1        0.0513
     25 C         145.4990  141.7819  163.8478 C.3     1  UNL1        0.2089
     26 C         143.2446  143.2925  161.2757 C.3     1  UNL1        0.1407
     27 N         143.3971  142.8661  159.8457 N.3     1  UNL1       -0.2584
     28 C         144.4070  141.8194  159.4788 C.3     1  UNL1        0.1052
     29 C         144.5595  141.3930  158.0488 C.3     1  UNL1        0.1595
     30 O         143.7021  142.0133  156.9857 O.3     1  UNL1       -0.3505
     31 C         142.6923  143.0600  157.3526 C.3     1  UNL1        0.1637
     32 C         142.5398  143.4864  158.7826 C.3     1  UNL1        0.1247
     33 C         141.5300  144.5331  159.1495 C.2     1  UNL1        0.0673
     34 O         141.8257  145.9818  158.8967 O.co2   1  UNL1       -0.5477
     35 O         140.2245  144.1312  159.7692 O.co2   1  UNL1       -0.5477
@<TRIPOS>UNITY_ATOM_ATTR
34 1
charge -1
@<TRIPOS>BOND
     1    24    25    1
     2    25    23    1
     3    23    21    1
     4    21    22    2
     5    21     1    1
     6     1     2    2
     7     2    26    1
     8    26    27    1
     9    27    28    1
    10    28    29    1
    11    29    30    1
    12    30    31    1
    13    31    32    1
    14    32    33    1
    15    33    34   ar
    16    33    35   ar
    17     2     3    1
    18     3     4    1
    19     4    16    1
    20    16    17   ar
    21    17    18   ar
    22    18    19   ar
    23    19    20   ar
    24     4     5    2
    25     5     6    1
    26     6     8    1
    27     8     9   ar
    28     9    10   ar
    29    10    11   ar
    30    11    12    1
    31    11    13   ar
    32    13    14   ar
    33    14    15    1
    34     6     1    1
    35    14     8   ar
    36    32    27    1
    37    20    16   ar
    38     3     7    1
@<TRIPOS>MOLECULE
*****
 35 38 0 0 0
SMALL
GASTEIGER

@<TRIPOS>ATOM
      1 C         139.7478  141.1481  159.0445 C.2     1  UNL1        0.1397
      2 C         139.6894  141.7815  157.6861 C.2     1  UNL1        0.1355
      3 N         138.4402  141.6760  156.8624 N.pl3   1  UNL1       -0.1998
      4 C         137.2495  140.9371  157.3971 C.2     1  UNL1        0.3442
      5 N         137.3079  140.3036  158.7555 N.2     1  UNL1       -0.0580
      6 C         138.5570  140.4092  159.5792 C.3     1  UNL1        0.2695
      7 H         138.4019  142.0917  155.9708 H       1  UNL1        0.2983
      8 C         138.6154  139.7757  160.9377 C.ar    1  UNL1        0.0414
      9 C         139.1186  138.3708  161.0891 C.ar    1  UNL1        0.0019
     10 C         139.1770  137.7373  162.4475 C.ar    1  UNL1        0.0113
     11 C         138.7322  138.5088  163.6546 C.ar    1  UNL1        0.0585
     12 CL        138.7905  137.8753  165.0129 Cl      1  UNL1       -0.0822
     13 C         138.2290  139.9137  163.5032 C.ar    1  UNL1        0.0226
     14 C         138.1706  140.5472  162.1447 C.ar    1  UNL1        0.0589
     15 CL        137.6674  141.9521  161.9933 Cl      1  UNL1       -0.0824
     16 C         136.0003  140.8315  156.5735 C.ar    1  UNL1        0.1931
     17 N         134.8006  139.9905  156.8950 N.ar    1  UNL1       -0.2297
     18 C         133.7903  140.1876  155.8039 C.ar    1  UNL1        0.1067
     19 C         134.3656  141.1506  154.8080 C.ar    1  UNL1        0.0577
     20 S         135.7314  141.5485  155.2836 S.2     1  UNL1       -0.0586
     21 C         140.9970  141.2537  159.8681 C.2     1  UNL1        0.3447
     22 O         142.1821  140.3921  159.5470 O.2     1  UNL1       -0.2450
     23 O         141.0610  142.2207  161.0130 O.3     1  UNL1       -0.4455
     24 C         141.7941  140.7543  163.0285 C.3     1  UNL1        0.0513
     25 C         141.9905  141.9627  162.1616 C.3     1  UNL1        0.2089
     26 C         140.8802  142.5205  157.1513 C.3     1  UNL1        0.1407
     27 N         140.7026  143.8647  156.5097 N.3     1  UNL1       -0.2584
     28 C         140.5299  143.9694  155.0233 C.3     1  UNL1        0.1052
     29 C         140.3523  145.3137  154.3818 C.3     1  UNL1        0.1595
     30 O         140.3475  146.5531  155.2266 O.3     1  UNL1       -0.3505
     31 C         140.5203  146.4484  156.7129 C.3     1  UNL1        0.1637
     32 C         140.6979  145.1043  157.3545 C.3     1  UNL1        0.1247
     33 C         140.8706  144.9996  158.8408 C.2     1  UNL1        0.0673
     34 O         142.2470  144.9226  159.4323 O.co2   1  UNL1       -0.5477
     35 O         139.6672  144.9718  159.7356 O.co2   1  UNL1       -0.5477
@<TRIPOS>UNITY_ATOM_ATTR
34 1
charge -1
@<TRIPOS>BOND
     1    24    25    1
     2    25    23    1
     3    23    21    1
     4    21    22    2
     5    21     1    1
     6     1     2    2
     7     2    26    1
     8    26    27    1
     9    27    28    1
    10    28    29    1
    11    29    30    1
    12    30    31    1
    13    31    32    1
    14    32    33    1
    15    33    34   ar
    16    33    35   ar
    17     2     3    1
    18     3     4    1
    19     4    16    1
    20    16    17   ar
    21    17    18   ar
    22    18    19   ar
    23    19    20   ar
    24     4     5    2
    25     5     6    1
    26     6     8    1
    27     8     9   ar
    28     9    10   ar
    29    10    11   ar
    30    11    12    1
    31    11    13   ar
    32    13    14   ar
    33    14    15    1
    34     6     1    1
    35    14     8   ar
    36    32    27    1
    37    20    16   ar
    38     3     7    1
