@<TRIPOS>MOLECULE
*****
 29 34 0 0 0
SMALL
GASTEIGER

@<TRIPOS>ATOM
      1 O         142.0295  141.5637  160.7762 O.2     1  UNL1       -0.2904
      2 C         141.1759  141.9363  161.9520 C.2     1  UNL1        0.1885
      3 C         140.5707  143.3063  162.0352 C.ar    1  UNL1        0.0700
      4 C         140.8192  144.3036  160.9428 C.ar    1  UNL1        0.0059
      5 C         140.2141  145.6736  161.0260 C.ar    1  UNL1        0.0003
      6 C         139.3604  146.0462  162.2018 C.ar    1  UNL1        0.0031
      7 C         139.1119  145.0489  163.2943 C.ar    1  UNL1        0.0376
      8 C         139.7171  143.6789  163.2110 C.ar    1  UNL1        0.1476
      9 O         139.4686  142.6815  164.3035 O.3     1  UNL1       -0.4557
     10 C         140.0737  141.3116  164.2202 C.2     1  UNL1        0.1491
     11 C         140.0058  140.1268  165.1377 C.2     1  UNL1        0.0940
     12 N         140.8174  139.0220  164.5290 N.2     1  UNL1       -0.2480
     13 C         141.3870  139.5239  163.2353 C.2     1  UNL1        0.0966
     14 C         140.9274  140.9390  163.0444 C.3     1  UNL1        0.1621
     15 C         142.2625  138.7472  162.2971 C.ar    1  UNL1        0.1251
     16 N         141.8044  137.9939  161.0836 N.ar    1  UNL1       -0.2356
     17 C         143.0087  137.3685  160.4442 C.ar    1  UNL1        0.1065
     18 C         144.2110  137.7353  161.2627 C.ar    1  UNL1        0.0575
     19 S         143.7499  138.5874  162.4078 S.2     1  UNL1       -0.0647
     20 C         139.2575  140.0589  166.4360 C.3     1  UNL1        0.0750
     21 C         139.8758  140.6078  167.6875 C.ar    1  UNL1       -0.0129
     22 C         139.2454  140.3293  169.0199 C.ar    1  UNL1       -0.0006
     23 C         139.8636  140.8782  170.2716 C.ar    1  UNL1        0.0399
     24 C         141.1122  141.7056  170.1908 C.ar    1  UNL1        0.1764
     25 C         141.7425  141.9841  168.8585 C.ar    1  UNL1        0.1761
     26 C         141.1243  141.4352  167.6069 C.ar    1  UNL1        0.0363
     27 O         142.9623  142.8259  169.0897 O.3     1  UNL1       -0.4346
     28 C         143.0858  143.0676  170.5649 C.3     1  UNL1        0.4294
     29 O         141.9424  142.3753  171.2454 O.3     1  UNL1       -0.4346
@<TRIPOS>BOND
     1     1     2    2
     2     2     3    1
     3     3     4   ar
     4     4     5   ar
     5     5     6   ar
     6     6     7   ar
     7     7     8   ar
     8     8     9    1
     9     9    10    1
    10    10    11    2
    11    11    20    1
    12    20    21    1
    13    21    22   ar
    14    22    23   ar
    15    23    24   ar
    16    24    25   ar
    17    25    26   ar
    18    25    27    1
    19    27    28    1
    20    28    29    1
    21    11    12    1
    22    12    13    2
    23    13    15    1
    24    15    16   ar
    25    16    17   ar
    26    17    18   ar
    27    18    19   ar
    28    13    14    1
    29    14     2    1
    30     8     3   ar
    31    14    10    1
    32    26    21   ar
    33    19    15   ar
    34    29    24    1
@<TRIPOS>MOLECULE
*****
 29 34 0 0 0
SMALL
GASTEIGER

@<TRIPOS>ATOM
      1 O         143.3937  142.5392  167.3343 O.2     1  UNL1       -0.2904
      2 C         142.4583  142.3057  166.1851 C.2     1  UNL1        0.1885
      3 C         142.6761  143.0195  164.8839 C.ar    1  UNL1        0.0700
      4 C         143.8290  143.9668  164.7319 C.ar    1  UNL1        0.0059
      5 C         144.0467  144.6806  163.4308 C.ar    1  UNL1        0.0003
      6 C         143.1114  144.4471  162.2816 C.ar    1  UNL1        0.0031
      7 C         141.9584  143.4997  162.4336 C.ar    1  UNL1        0.0376
      8 C         141.7407  142.7859  163.7347 C.ar    1  UNL1        0.1476
      9 O         140.5877  141.8385  163.8868 O.3     1  UNL1       -0.4557
     10 C         140.3700  141.1248  165.1880 C.2     1  UNL1        0.1491
     11 C         139.3284  140.1405  165.6308 C.2     1  UNL1        0.0940
     12 N         139.6199  139.7657  167.0537 N.2     1  UNL1       -0.2480
     13 C         140.8417  140.5184  167.4902 C.2     1  UNL1        0.0966
     14 C         141.3054  141.3583  166.3371 C.3     1  UNL1        0.1621
     15 C         141.4868  140.4441  168.8424 C.ar    1  UNL1        0.1251
     16 N         142.7246  139.6705  169.1875 N.ar    1  UNL1       -0.2356
     17 C         143.0101  139.8787  170.6453 C.ar    1  UNL1        0.1065
     18 C         141.9486  140.7812  171.2011 C.ar    1  UNL1        0.0575
     19 S         141.0071  141.1306  170.0869 S.2     1  UNL1       -0.0647
     20 C         138.1943  139.6220  164.7971 C.3     1  UNL1        0.0750
     21 C         138.3738  139.4351  163.3197 C.ar    1  UNL1       -0.0129
     22 C         138.9730  138.1654  162.7917 C.ar    1  UNL1       -0.0006
     23 C         139.1525  137.9784  161.3142 C.ar    1  UNL1        0.0399
     24 C         138.7330  139.0613  160.3648 C.ar    1  UNL1        0.1764
     25 C         138.1339  140.3310  160.8928 C.ar    1  UNL1        0.1761
     26 C         137.9543  140.5180  162.3702 C.ar    1  UNL1        0.0363
     27 O         137.8169  141.2154  159.7233 O.3     1  UNL1       -0.4346
     28 C         138.2202  140.4922  158.4726 C.3     1  UNL1        0.4294
     29 O         138.7863  139.1608  158.8690 O.3     1  UNL1       -0.4346
@<TRIPOS>BOND
     1     1     2    2
     2     2     3    1
     3     3     4   ar
     4     4     5   ar
     5     5     6   ar
     6     6     7   ar
     7     7     8   ar
     8     8     9    1
     9     9    10    1
    10    10    11    2
    11    11    20    1
    12    20    21    1
    13    21    22   ar
    14    22    23   ar
    15    23    24   ar
    16    24    25   ar
    17    25    26   ar
    18    25    27    1
    19    27    28    1
    20    28    29    1
    21    11    12    1
    22    12    13    2
    23    13    15    1
    24    15    16   ar
    25    16    17   ar
    26    17    18   ar
    27    18    19   ar
    28    13    14    1
    29    14     2    1
    30     8     3   ar
    31    14    10    1
    32    26    21   ar
    33    19    15   ar
    34    29    24    1
@<TRIPOS>MOLECULE
*****
 29 34 0 0 0
SMALL
GASTEIGER

@<TRIPOS>ATOM
      1 O         140.3718  142.9122  167.4102 O.2     1  UNL1       -0.2904
      2 C         140.2393  142.1255  166.1399 C.2     1  UNL1        0.1885
      3 C         139.4124  142.6611  165.0088 C.ar    1  UNL1        0.0700
      4 C         138.7180  143.9834  165.1480 C.ar    1  UNL1        0.0059
      5 C         137.8912  144.5190  164.0169 C.ar    1  UNL1        0.0003
      6 C         137.7587  143.7323  162.7466 C.ar    1  UNL1        0.0031
      7 C         138.4531  142.4100  162.6074 C.ar    1  UNL1        0.0376
      8 C         139.2799  141.8744  163.7385 C.ar    1  UNL1        0.1476
      9 O         139.9744  140.5521  163.5994 O.3     1  UNL1       -0.4557
     10 C         140.8012  140.0165  164.7305 C.2     1  UNL1        0.1491
     11 C         141.5956  138.7533  164.8827 C.2     1  UNL1        0.0940
     12 N         142.2191  138.7592  166.2470 N.2     1  UNL1       -0.2480
     13 C         141.8100  140.0262  166.9380 C.2     1  UNL1        0.0966
     14 C         140.9337  140.8032  166.0008 C.3     1  UNL1        0.1621
     15 C         142.2074  140.4429  168.3230 C.ar    1  UNL1        0.1251
     16 N         143.1538  141.5530  168.6723 N.ar    1  UNL1       -0.2356
     17 C         143.2595  141.6189  170.1672 C.ar    1  UNL1        0.1065
     18 C         142.3783  140.5495  170.7417 C.ar    1  UNL1        0.0575
     19 S         141.7281  139.8227  169.6019 S.2     1  UNL1       -0.0647
     20 C         141.7410  137.6736  163.8515 C.3     1  UNL1        0.0750
     21 C         142.2415  138.0106  162.4783 C.ar    1  UNL1       -0.0129
     22 C         143.6819  138.3759  162.2737 C.ar    1  UNL1       -0.0006
     23 C         144.1826  138.7129  160.9004 C.ar    1  UNL1        0.0399
     24 C         143.2427  138.6846  159.7317 C.ar    1  UNL1        0.1764
     25 C         141.8023  138.3193  159.9362 C.ar    1  UNL1        0.1761
     26 C         141.3017  137.9823  161.3095 C.ar    1  UNL1        0.0363
     27 O         141.1160  138.3758  158.6036 O.3     1  UNL1       -0.4346
     28 C         142.1322  138.7761  157.5755 C.3     1  UNL1        0.4294
     29 O         143.4466  138.9669  158.2727 O.3     1  UNL1       -0.4346
@<TRIPOS>BOND
     1     1     2    2
     2     2     3    1
     3     3     4   ar
     4     4     5   ar
     5     5     6   ar
     6     6     7   ar
     7     7     8   ar
     8     8     9    1
     9     9    10    1
    10    10    11    2
    11    11    20    1
    12    20    21    1
    13    21    22   ar
    14    22    23   ar
    15    23    24   ar
    16    24    25   ar
    17    25    26   ar
    18    25    27    1
    19    27    28    1
    20    28    29    1
    21    11    12    1
    22    12    13    2
    23    13    15    1
    24    15    16   ar
    25    16    17   ar
    26    17    18   ar
    27    18    19   ar
    28    13    14    1
    29    14     2    1
    30     8     3   ar
    31    14    10    1
    32    26    21   ar
    33    19    15   ar
    34    29    24    1
@<TRIPOS>MOLECULE
*****
 29 34 0 0 0
SMALL
GASTEIGER

@<TRIPOS>ATOM
      1 O         139.7273  139.6052  167.7826 O.2     1  UNL1       -0.2904
      2 C         140.5462  139.8663  166.5533 C.2     1  UNL1        0.1885
      3 C         140.2437  139.1321  165.2806 C.ar    1  UNL1        0.0700
      4 C         139.1223  138.1368  165.2374 C.ar    1  UNL1        0.0059
      5 C         138.8199  137.4027  163.9648 C.ar    1  UNL1        0.0003
      6 C         139.6388  137.6638  162.7355 C.ar    1  UNL1        0.0031
      7 C         140.7602  138.6590  162.7788 C.ar    1  UNL1        0.0376
      8 C         141.0626  139.3932  164.0513 C.ar    1  UNL1        0.1476
      9 O         142.1840  140.3885  164.0947 O.3     1  UNL1       -0.4557
     10 C         142.4865  141.1227  165.3672 C.2     1  UNL1        0.1491
     11 C         143.5214  142.1530  165.7099 C.2     1  UNL1        0.0940
     12 N         143.3421  142.5287  167.1510 N.2     1  UNL1       -0.2480
     13 C         142.1964  141.7306  167.6989 C.2     1  UNL1        0.0966
     14 C         141.6676  140.8616  166.5965 C.3     1  UNL1        0.1621
     15 C         141.6715  141.7908  169.1028 C.ar    1  UNL1        0.1251
     16 N         142.1097  140.9239  170.2458 N.ar    1  UNL1       -0.2356
     17 C         141.3253  141.3258  171.4597 C.ar    1  UNL1        0.1065
     18 C         140.4024  142.4411  171.0667 C.ar    1  UNL1        0.0575
     19 S         140.6164  142.7285  169.6101 S.2     1  UNL1       -0.0647
     20 C         144.5542  142.7099  164.7755 C.3     1  UNL1        0.0750
     21 C         144.2333  142.8842  163.3206 C.ar    1  UNL1       -0.0129
     22 C         145.0135  142.1300  162.2850 C.ar    1  UNL1       -0.0006
     23 C         144.6927  142.3042  160.8300 C.ar    1  UNL1        0.0399
     24 C         143.5916  143.2326  160.4108 C.ar    1  UNL1        0.1764
     25 C         142.8114  143.9867  161.4465 C.ar    1  UNL1        0.1761
     26 C         143.1322  143.8125  162.9013 C.ar    1  UNL1        0.0363
     27 O         141.7894  144.8252  160.7374 O.3     1  UNL1       -0.4346
     28 C         141.9381  144.5892  159.2636 C.3     1  UNL1        0.4294
     29 O         143.0519  143.6050  159.0617 O.3     1  UNL1       -0.4346
@<TRIPOS>BOND
     1     1     2    2
     2     2     3    1
     3     3     4   ar
     4     4     5   ar
     5     5     6   ar
     6     6     7   ar
     7     7     8   ar
     8     8     9    1
     9     9    10    1
    10    10    11    2
    11    11    20    1
    12    20    21    1
    13    21    22   ar
    14    22    23   ar
    15    23    24   ar
    16    24    25   ar
    17    25    26   ar
    18    25    27    1
    19    27    28    1
    20    28    29    1
    21    11    12    1
    22    12    13    2
    23    13    15    1
    24    15    16   ar
    25    16    17   ar
    26    17    18   ar
    27    18    19   ar
    28    13    14    1
    29    14     2    1
    30     8     3   ar
    31    14    10    1
    32    26    21   ar
    33    19    15   ar
    34    29    24    1
@<TRIPOS>MOLECULE
*****
 29 34 0 0 0
SMALL
GASTEIGER

@<TRIPOS>ATOM
      1 O         140.0307  143.1493  167.5833 O.2     1  UNL1       -0.2904
      2 C         140.6349  142.6617  166.2999 C.2     1  UNL1        0.1885
      3 C         140.2592  143.3095  165.0002 C.ar    1  UNL1        0.0700
      4 C         139.2792  144.4450  164.9840 C.ar    1  UNL1        0.0059
      5 C         138.9034  145.0928  163.6843 C.ar    1  UNL1        0.0003
      6 C         139.5077  144.6051  162.4009 C.ar    1  UNL1        0.0031
      7 C         140.4877  143.4697  162.4172 C.ar    1  UNL1        0.0376
      8 C         140.8634  142.8219  163.7169 C.ar    1  UNL1        0.1476
      9 O         141.8435  141.6864  163.7332 O.3     1  UNL1       -0.4557
     10 C         142.2192  141.0386  165.0328 C.2     1  UNL1        0.1491
     11 C         143.1504  139.9087  165.3589 C.2     1  UNL1        0.0940
     12 N         143.1216  139.6980  166.8437 N.2     1  UNL1       -0.2480
     13 C         142.1727  140.6977  167.4354 C.2     1  UNL1        0.0966
     14 C         141.6149  141.5262  166.3162 C.3     1  UNL1        0.1621
     15 C         141.8398  140.8434  168.8907 C.ar    1  UNL1        0.1251
     16 N         140.7458  140.1228  169.6213 N.ar    1  UNL1       -0.2356
     17 C         140.7724  140.5693  171.0532 C.ar    1  UNL1        0.1065
     18 C         141.8830  141.5658  171.2074 C.ar    1  UNL1        0.0575
     19 S         142.5427  141.7351  169.8709 S.2     1  UNL1       -0.0647
     20 C         143.9670  139.1268  164.3731 C.3     1  UNL1        0.0750
     21 C         143.4173  138.8346  163.0084 C.ar    1  UNL1       -0.0129
     22 C         142.1761  138.0052  162.8615 C.ar    1  UNL1       -0.0006
     23 C         141.6263  137.7130  161.4968 C.ar    1  UNL1        0.0399
     24 C         142.3179  138.2501  160.2789 C.ar    1  UNL1        0.1764
     25 C         143.5591  139.0794  160.4257 C.ar    1  UNL1        0.1761
     26 C         144.1088  139.3716  161.7904 C.ar    1  UNL1        0.0363
     27 O         144.0206  139.4701  159.0530 O.3     1  UNL1       -0.4346
     28 C         143.0646  138.8823  158.0578 C.3     1  UNL1        0.4294
     29 O         142.0122  138.1282  158.8154 O.3     1  UNL1       -0.4346
@<TRIPOS>BOND
     1     1     2    2
     2     2     3    1
     3     3     4   ar
     4     4     5   ar
     5     5     6   ar
     6     6     7   ar
     7     7     8   ar
     8     8     9    1
     9     9    10    1
    10    10    11    2
    11    11    20    1
    12    20    21    1
    13    21    22   ar
    14    22    23   ar
    15    23    24   ar
    16    24    25   ar
    17    25    26   ar
    18    25    27    1
    19    27    28    1
    20    28    29    1
    21    11    12    1
    22    12    13    2
    23    13    15    1
    24    15    16   ar
    25    16    17   ar
    26    17    18   ar
    27    18    19   ar
    28    13    14    1
    29    14     2    1
    30     8     3   ar
    31    14    10    1
    32    26    21   ar
    33    19    15   ar
    34    29    24    1
@<TRIPOS>MOLECULE
*****
 29 34 0 0 0
SMALL
GASTEIGER

@<TRIPOS>ATOM
      1 O         140.4735  139.1410  167.4259 O.2     1  UNL1       -0.2904
      2 C         140.7507  139.7818  166.0983 C.2     1  UNL1        0.1885
      3 C         140.1439  139.2133  164.8498 C.ar    1  UNL1        0.0700
      4 C         139.2600  138.0040  164.9289 C.ar    1  UNL1        0.0059
      5 C         138.6533  137.4355  163.6805 C.ar    1  UNL1        0.0003
      6 C         138.9304  138.0764  162.3529 C.ar    1  UNL1        0.0031
      7 C         139.8143  139.2857  162.2737 C.ar    1  UNL1        0.0376
      8 C         140.4210  139.8541  163.5222 C.ar    1  UNL1        0.1476
      9 O         141.3050  141.0635  163.4431 O.3     1  UNL1       -0.4557
     10 C         141.9117  141.6319  164.6916 C.2     1  UNL1        0.1491
     11 C         142.8159  142.8061  164.9234 C.2     1  UNL1        0.0940
     12 N         143.0975  142.8910  166.3943 N.2     1  UNL1       -0.2480
     13 C         142.3674  141.7693  167.0715 C.2     1  UNL1        0.0966
     14 C         141.6345  140.9911  166.0192 C.3     1  UNL1        0.1621
     15 C         142.3698  141.4769  168.5427 C.ar    1  UNL1        0.1251
     16 N         143.0492  140.3182  169.2103 N.ar    1  UNL1       -0.2356
     17 C         142.7924  140.4172  170.6849 C.ar    1  UNL1        0.1065
     18 C         141.9542  141.6371  170.9286 C.ar    1  UNL1        0.0575
     19 S         141.6930  142.2921  169.6046 S.2     1  UNL1       -0.0647
     20 C         143.3454  143.7328  163.8694 C.3     1  UNL1        0.0750
     21 C         142.4177  144.3045  162.8386 C.ar    1  UNL1       -0.0129
     22 C         141.3435  145.2679  163.2483 C.ar    1  UNL1       -0.0006
     23 C         140.4157  145.8396  162.2175 C.ar    1  UNL1        0.0399
     24 C         140.5623  145.4479  160.7770 C.ar    1  UNL1        0.1764
     25 C         141.6365  144.4845  160.3673 C.ar    1  UNL1        0.1761
     26 C         142.5642  143.9128  161.3980 C.ar    1  UNL1        0.0363
     27 O         141.5396  144.2856  158.8837 O.3     1  UNL1       -0.4346
     28 C         140.4054  145.1261  158.3765 C.3     1  UNL1        0.4294
     29 O         139.8014  145.8445  159.5467 O.3     1  UNL1       -0.4346
@<TRIPOS>BOND
     1     1     2    2
     2     2     3    1
     3     3     4   ar
     4     4     5   ar
     5     5     6   ar
     6     6     7   ar
     7     7     8   ar
     8     8     9    1
     9     9    10    1
    10    10    11    2
    11    11    20    1
    12    20    21    1
    13    21    22   ar
    14    22    23   ar
    15    23    24   ar
    16    24    25   ar
    17    25    26   ar
    18    25    27    1
    19    27    28    1
    20    28    29    1
    21    11    12    1
    22    12    13    2
    23    13    15    1
    24    15    16   ar
    25    16    17   ar
    26    17    18   ar
    27    18    19   ar
    28    13    14    1
    29    14     2    1
    30     8     3   ar
    31    14    10    1
    32    26    21   ar
    33    19    15   ar
    34    29    24    1
@<TRIPOS>MOLECULE
*****
 29 34 0 0 0
SMALL
GASTEIGER

@<TRIPOS>ATOM
      1 O         141.1612  141.6931  159.0293 O.2     1  UNL1       -0.2904
      2 C         140.5270  141.7666  160.3867 C.2     1  UNL1        0.1885
      3 C         140.2039  143.1004  160.9923 C.ar    1  UNL1        0.0700
      4 C         140.5150  144.3606  160.2405 C.ar    1  UNL1        0.0059
      5 C         140.1920  145.6943  160.8462 C.ar    1  UNL1        0.0003
      6 C         139.5577  145.7678  162.2035 C.ar    1  UNL1        0.0031
      7 C         139.2465  144.5077  162.9552 C.ar    1  UNL1        0.0376
      8 C         139.5696  143.1740  162.3496 C.ar    1  UNL1        0.1476
      9 O         139.2585  141.9137  163.1013 O.3     1  UNL1       -0.4557
     10 C         139.5816  140.5800  162.4957 C.2     1  UNL1        0.1491
     11 C         139.3921  139.1784  162.9953 C.2     1  UNL1        0.0940
     12 N         139.9093  138.2386  161.9468 N.2     1  UNL1       -0.2480
     13 C         140.4184  139.0594  160.7992 C.2     1  UNL1        0.0966
     14 C         140.2158  140.5065  161.1384 C.3     1  UNL1        0.1621
     15 C         141.0237  138.5267  159.5343 C.ar    1  UNL1        0.1251
     16 N         140.2943  138.2643  158.2502 N.ar    1  UNL1       -0.2356
     17 C         141.2846  137.7383  157.2537 C.ar    1  UNL1        0.1065
     18 C         142.6260  137.6757  157.9222 C.ar    1  UNL1        0.0575
     19 S         142.4648  138.1629  159.3317 S.2     1  UNL1       -0.0647
     20 C         138.7910  138.7856  164.3123 C.3     1  UNL1        0.0750
     21 C         139.4673  139.1783  165.5923 C.ar    1  UNL1       -0.0129
     22 C         140.9512  139.3952  165.6206 C.ar    1  UNL1       -0.0006
     23 C         141.6276  139.7880  166.9007 C.ar    1  UNL1        0.0399
     24 C         140.8199  139.9637  168.1524 C.ar    1  UNL1        0.1764
     25 C         139.3359  139.7468  168.1240 C.ar    1  UNL1        0.1761
     26 C         138.6596  139.3541  166.8441 C.ar    1  UNL1        0.0363
     27 O         138.8051  139.9919  169.5055 O.3     1  UNL1       -0.4346
     28 C         139.9611  140.3603  170.3875 C.3     1  UNL1        0.4294
     29 O         141.2062  140.3429  169.5512 O.3     1  UNL1       -0.4346
@<TRIPOS>BOND
     1     1     2    2
     2     2     3    1
     3     3     4   ar
     4     4     5   ar
     5     5     6   ar
     6     6     7   ar
     7     7     8   ar
     8     8     9    1
     9     9    10    1
    10    10    11    2
    11    11    20    1
    12    20    21    1
    13    21    22   ar
    14    22    23   ar
    15    23    24   ar
    16    24    25   ar
    17    25    26   ar
    18    25    27    1
    19    27    28    1
    20    28    29    1
    21    11    12    1
    22    12    13    2
    23    13    15    1
    24    15    16   ar
    25    16    17   ar
    26    17    18   ar
    27    18    19   ar
    28    13    14    1
    29    14     2    1
    30     8     3   ar
    31    14    10    1
    32    26    21   ar
    33    19    15   ar
    34    29    24    1
@<TRIPOS>MOLECULE
*****
 29 34 0 0 0
SMALL
GASTEIGER

@<TRIPOS>ATOM
      1 O         143.0751  143.6197  160.2360 O.2     1  UNL1       -0.2904
      2 C         142.5184  142.8043  161.3652 C.2     1  UNL1        0.1885
      3 C         143.4459  142.1434  162.3415 C.ar    1  UNL1        0.0700
      4 C         144.9300  142.2979  162.1886 C.ar    1  UNL1        0.0059
      5 C         145.8574  141.6371  163.1648 C.ar    1  UNL1        0.0003
      6 C         145.3007  140.8216  164.2941 C.ar    1  UNL1        0.0031
      7 C         143.8165  140.6670  164.4470 C.ar    1  UNL1        0.0376
      8 C         142.8892  141.3279  163.4707 C.ar    1  UNL1        0.1476
      9 O         141.4049  141.1734  163.6237 O.3     1  UNL1       -0.4557
     10 C         140.4775  141.8342  162.6474 C.2     1  UNL1        0.1491
     11 C         138.9813  141.8603  162.5442 C.2     1  UNL1        0.0940
     12 N         138.6133  142.6918  161.3513 N.2     1  UNL1       -0.2480
     13 C         139.8821  143.1797  160.7172 C.2     1  UNL1        0.0966
     14 C         141.0343  142.6497  161.5182 C.3     1  UNL1        0.1621
     15 C         139.9814  144.0455  159.4963 C.ar    1  UNL1        0.1251
     16 N         140.0697  145.5429  159.4822 N.ar    1  UNL1       -0.2356
     17 C         140.1526  145.9888  158.0524 C.ar    1  UNL1        0.1065
     18 C         140.1155  144.7670  157.1829 C.ar    1  UNL1        0.0575
     19 S         140.0097  143.5660  158.0753 S.2     1  UNL1       -0.0647
     20 C         138.0216  141.1751  163.4713 C.3     1  UNL1        0.0750
     21 C         138.4731  140.7478  164.8364 C.ar    1  UNL1       -0.0129
     22 C         138.1185  139.3841  165.3509 C.ar    1  UNL1       -0.0006
     23 C         138.5700  138.9567  166.7160 C.ar    1  UNL1        0.0399
     24 C         139.3761  139.8930  167.5666 C.ar    1  UNL1        0.1764
     25 C         139.7307  141.2566  167.0521 C.ar    1  UNL1        0.1761
     26 C         139.2792  141.6840  165.6871 C.ar    1  UNL1        0.0363
     27 O         140.5309  141.9576  168.1098 O.3     1  UNL1       -0.4346
     28 C         140.6708  141.0270  169.2779 C.3     1  UNL1        0.4294
     29 O         139.9571  139.7511  168.9422 O.3     1  UNL1       -0.4346
@<TRIPOS>BOND
     1     1     2    2
     2     2     3    1
     3     3     4   ar
     4     4     5   ar
     5     5     6   ar
     6     6     7   ar
     7     7     8   ar
     8     8     9    1
     9     9    10    1
    10    10    11    2
    11    11    20    1
    12    20    21    1
    13    21    22   ar
    14    22    23   ar
    15    23    24   ar
    16    24    25   ar
    17    25    26   ar
    18    25    27    1
    19    27    28    1
    20    28    29    1
    21    11    12    1
    22    12    13    2
    23    13    15    1
    24    15    16   ar
    25    16    17   ar
    26    17    18   ar
    27    18    19   ar
    28    13    14    1
    29    14     2    1
    30     8     3   ar
    31    14    10    1
    32    26    21   ar
    33    19    15   ar
    34    29    24    1
@<TRIPOS>MOLECULE
*****
 29 34 0 0 0
SMALL
GASTEIGER

@<TRIPOS>ATOM
      1 O         140.1601  141.7794  160.3202 O.2     1  UNL1       -0.2904
      2 C         140.4125  141.7346  161.7981 C.2     1  UNL1        0.1885
      3 C         139.5760  142.5635  162.7273 C.ar    1  UNL1        0.0700
      4 C         138.4872  143.4371  162.1785 C.ar    1  UNL1        0.0059
      5 C         137.6508  144.2660  163.1077 C.ar    1  UNL1        0.0003
      6 C         137.9032  144.2211  164.5856 C.ar    1  UNL1        0.0031
      7 C         138.9920  143.3475  165.1344 C.ar    1  UNL1        0.0376
      8 C         139.8284  142.5186  164.2052 C.ar    1  UNL1        0.1476
      9 O         140.9172  141.6449  164.7540 O.3     1  UNL1       -0.4557
     10 C         141.7537  140.8160  163.8248 C.2     1  UNL1        0.1491
     11 C         142.8888  139.8673  164.0726 C.2     1  UNL1        0.0940
     12 N         143.3380  139.3258  162.7478 N.2     1  UNL1       -0.2480
     13 C         142.4804  139.9399  161.6813 C.2     1  UNL1        0.0966
     14 C         141.5013  140.8609  162.3469 C.3     1  UNL1        0.1621
     15 C         142.5839  139.6788  160.2078 C.ar    1  UNL1        0.1251
     16 N         141.7484  138.7112  159.4231 N.ar    1  UNL1       -0.2356
     17 C         142.1892  138.7739  157.9906 C.ar    1  UNL1        0.1065
     18 C         143.2970  139.7802  157.8901 C.ar    1  UNL1        0.0575
     19 S         143.5410  140.3394  159.2604 S.2     1  UNL1       -0.0647
     20 C         143.4723  139.5209  165.4103 C.3     1  UNL1        0.0750
     21 C         142.9371  140.1692  166.6526 C.ar    1  UNL1       -0.0129
     22 C         143.2394  141.6108  166.9362 C.ar    1  UNL1       -0.0006
     23 C         142.7042  142.2592  168.1785 C.ar    1  UNL1        0.0399
     24 C         141.8666  141.4659  169.1372 C.ar    1  UNL1        0.1764
     25 C         141.5643  140.0243  168.8536 C.ar    1  UNL1        0.1761
     26 C         142.0994  139.3759  167.6114 C.ar    1  UNL1        0.0363
     27 O         140.7170  139.4992  169.9746 O.3     1  UNL1       -0.4346
     28 C         140.4958  140.6163  170.9509 C.3     1  UNL1        0.4294
     29 O         141.2063  141.8317  170.4334 O.3     1  UNL1       -0.4346
@<TRIPOS>BOND
     1     1     2    2
     2     2     3    1
     3     3     4   ar
     4     4     5   ar
     5     5     6   ar
     6     6     7   ar
     7     7     8   ar
     8     8     9    1
     9     9    10    1
    10    10    11    2
    11    11    20    1
    12    20    21    1
    13    21    22   ar
    14    22    23   ar
    15    23    24   ar
    16    24    25   ar
    17    25    26   ar
    18    25    27    1
    19    27    28    1
    20    28    29    1
    21    11    12    1
    22    12    13    2
    23    13    15    1
    24    15    16   ar
    25    16    17   ar
    26    17    18   ar
    27    18    19   ar
    28    13    14    1
    29    14     2    1
    30     8     3   ar
    31    14    10    1
    32    26    21   ar
    33    19    15   ar
    34    29    24    1
