@<TRIPOS>MOLECULE
*****
 34 38 0 0 0
SMALL
GASTEIGER

@<TRIPOS>ATOM
      1 N         144.5447  141.4248  161.6161 N.pl3   1  UNL1       -0.2825
      2 H         145.5255  141.5096  161.6210 H       1  UNL1        0.1551
      3 C         140.2735  144.4251  160.5305 C.ar    1  UNL1        0.1572
      4 N         139.9395  145.1759  159.2755 N.ar    1  UNL1       -0.1644
      5 N         141.0506  144.9534  158.2927 N.ar    1  UNL1       -0.2487
      6 C         141.1276  145.5198  156.9059 C.3     1  UNL1        0.1537
      7 C         142.0714  144.0652  158.9402 C.ar    1  UNL1        0.0796
      8 C         143.3761  143.5116  158.4492 C.ar    1  UNL1        0.0201
      9 C         144.2005  142.6315  159.3411 C.ar    1  UNL1        0.0162
     10 C         143.7202  142.3050  160.7242 C.ar    1  UNL1        0.0506
     11 C         142.4155  142.8586  161.2152 C.ar    1  UNL1        0.0179
     12 C         141.5911  143.7387  160.3233 C.ar    1  UNL1        0.0425
     13 C         138.6751  144.9560  165.5348 C.3     1  UNL1        0.0967
     14 C         138.7022  144.6144  164.0746 C.ar    1  UNL1        0.2270
     15 N         137.5967  143.9579  163.3020 N.ar    1  UNL1       -0.1113
     16 N         138.0507  143.8071  161.8803 N.ar    1  UNL1       -0.1055
     17 C         139.4369  144.3704  161.7743 C.ar    1  UNL1        0.2690
     18 O         139.8395  144.8693  163.1303 O.2     1  UNL1       -0.4182
     19 C         143.8748  140.4154  162.5006 C.ar    1  UNL1        0.2207
     20 N         143.3915  139.1173  161.9251 N.ar    1  UNL1       -0.2120
     21 C         142.7216  138.1079  162.8097 C.ar    1  UNL1        0.1034
     22 C         142.5350  138.3967  164.2697 C.ar    1  UNL1        0.0415
     23 C         143.0182  139.6948  164.8452 C.ar    1  UNL1        0.1050
     24 N         143.6881  140.7042  163.9607 N.ar    1  UNL1       -0.2120
     25 C         142.8316  139.9836  166.3052 C.ar    1  UNL1        0.1198
     26 C         142.5844  141.3327  166.9126 C.ar    1  UNL1        0.0381
     27 C         142.4594  141.1569  168.3970 C.ar    1  UNL1        0.0734
     28 N         142.6294  139.6991  168.7071 N.ar    1  UNL1       -0.2515
     29 C         142.5784  139.0759  170.0705 C.3     1  UNL1        0.1534
     30 N         142.8594  138.9741  167.4143 N.ar    1  UNL1       -0.1680
     31 C         142.2085  142.2474  169.3960 C.3     1  UNL1        0.1184
     32 N         140.8024  142.6212  169.7609 N.3     1  UNL1       -0.2652
     33 C         139.7721  141.5513  169.9701 C.3     1  UNL1        0.0900
     34 C         140.4266  144.0651  169.9166 C.3     1  UNL1        0.0900
@<TRIPOS>BOND
     1    13    14    1
     2    14    15   ar
     3    15    16   ar
     4    16    17   ar
     5    17     3    1
     6     3     4   ar
     7     4     5   ar
     8     5     6    1
     9     5     7   ar
    10     7     8   ar
    11     8     9   ar
    12     9    10   ar
    13    10     1    1
    14     1    19    1
    15    19    20   ar
    16    20    21   ar
    17    21    22   ar
    18    22    23   ar
    19    23    25    1
    20    25    26   ar
    21    26    27   ar
    22    27    31    1
    23    31    32    1
    24    32    33    1
    25    32    34    1
    26    27    28   ar
    27    28    29    1
    28    28    30   ar
    29    23    24   ar
    30    10    11   ar
    31    11    12   ar
    32    17    18   ar
    33    18    14   ar
    34    12     3   ar
    35    12     7   ar
    36    24    19   ar
    37    30    25   ar
    38     1     2    1
@<TRIPOS>MOLECULE
*****
 34 38 0 0 0
SMALL
GASTEIGER

@<TRIPOS>ATOM
      1 N         142.5613  144.6924  161.7303 N.pl3   1  UNL1       -0.2825
      2 H         142.6983  145.6618  161.8340 H       1  UNL1        0.1551
      3 C         139.1254  141.0107  159.9800 C.ar    1  UNL1        0.1572
      4 N         138.2069  141.0618  158.7952 N.ar    1  UNL1       -0.1644
      5 N         138.3981  142.3862  158.1174 N.ar    1  UNL1       -0.2487
      6 C         137.6788  142.8600  156.8893 C.3     1  UNL1        0.1537
      7 C         139.4347  143.1536  158.8832 C.ar    1  UNL1        0.0796
      8 C         140.0273  144.5166  158.6811 C.ar    1  UNL1        0.0201
      9 C         141.0695  145.0295  159.6301 C.ar    1  UNL1        0.0162
     10 C         141.5191  144.1794  160.7813 C.ar    1  UNL1        0.0506
     11 C         140.9264  142.8164  160.9834 C.ar    1  UNL1        0.0179
     12 C         139.8842  142.3035  160.0344 C.ar    1  UNL1        0.0425
     13 C         138.9954  138.1226  164.3984 C.3     1  UNL1        0.0967
     14 C         139.2015  138.5400  162.9725 C.ar    1  UNL1        0.2270
     15 N         139.7394  137.6766  161.8700 N.ar    1  UNL1       -0.1113
     16 N         139.7764  138.4971  160.6149 N.ar    1  UNL1       -0.1055
     17 C         139.2613  139.8675  160.9416 C.ar    1  UNL1        0.2690
     18 O         138.9061  139.8940  162.3986 O.2     1  UNL1       -0.4182
     19 C         143.3948  143.7284  162.5215 C.ar    1  UNL1        0.2207
     20 N         144.6349  143.1383  161.9180 N.ar    1  UNL1       -0.2120
     21 C         145.4684  142.1743  162.7092 C.ar    1  UNL1        0.1034
     22 C         145.0618  141.8003  164.1038 C.ar    1  UNL1        0.0415
     23 C         143.8218  142.3904  164.7072 C.ar    1  UNL1        0.1050
     24 N         142.9883  143.3544  163.9161 N.ar    1  UNL1       -0.2120
     25 C         143.4153  142.0165  166.1018 C.ar    1  UNL1        0.1198
     26 C         142.6931  140.7647  166.5040 C.ar    1  UNL1        0.0381
     27 C         142.4910  140.8032  167.9898 C.ar    1  UNL1        0.0734
     28 N         143.0883  142.0788  168.5059 N.ar    1  UNL1       -0.2515
     29 C         143.1104  142.5260  169.9375 C.3     1  UNL1        0.1534
     30 N         143.6595  142.8286  167.3390 N.ar    1  UNL1       -0.1680
     31 C         141.8111  139.7510  168.8147 C.3     1  UNL1        0.1184
     32 N         140.3683  139.9106  169.1928 N.3     1  UNL1       -0.2652
     33 C         139.3033  139.8272  168.1397 C.3     1  UNL1        0.0900
     34 C         139.9904  140.1535  170.6240 C.3     1  UNL1        0.0900
@<TRIPOS>BOND
     1    13    14    1
     2    14    15   ar
     3    15    16   ar
     4    16    17   ar
     5    17     3    1
     6     3     4   ar
     7     4     5   ar
     8     5     6    1
     9     5     7   ar
    10     7     8   ar
    11     8     9   ar
    12     9    10   ar
    13    10     1    1
    14     1    19    1
    15    19    20   ar
    16    20    21   ar
    17    21    22   ar
    18    22    23   ar
    19    23    25    1
    20    25    26   ar
    21    26    27   ar
    22    27    31    1
    23    31    32    1
    24    32    33    1
    25    32    34    1
    26    27    28   ar
    27    28    29    1
    28    28    30   ar
    29    23    24   ar
    30    10    11   ar
    31    11    12   ar
    32    17    18   ar
    33    18    14   ar
    34    12     3   ar
    35    12     7   ar
    36    24    19   ar
    37    30    25   ar
    38     1     2    1
@<TRIPOS>MOLECULE
*****
 34 38 0 0 0
SMALL
GASTEIGER

@<TRIPOS>ATOM
      1 N         144.4864  141.5575  161.0168 N.pl3   1  UNL1       -0.2825
      2 H         145.4234  141.4329  160.7414 H       1  UNL1        0.1551
      3 C         139.3730  140.3265  160.1443 C.ar    1  UNL1        0.1572
      4 N         138.7857  139.3875  159.1326 N.ar    1  UNL1       -0.1644
      5 N         139.9133  138.7964  158.3395 N.ar    1  UNL1       -0.2487
      6 C         139.7802  137.8056  157.2212 C.3     1  UNL1        0.1537
      7 C         141.1975  139.3701  158.8608 C.ar    1  UNL1        0.0796
      8 C         142.6277  139.1536  158.4640 C.ar    1  UNL1        0.0201
      9 C         143.7240  139.8827  159.1827 C.ar    1  UNL1        0.0162
     10 C         143.3900  140.8284  160.2981 C.ar    1  UNL1        0.0506
     11 C         141.9598  141.0449  160.6949 C.ar    1  UNL1        0.0179
     12 C         140.8635  140.3158  159.9763 C.ar    1  UNL1        0.0425
     13 C         137.7732  144.3100  163.2188 C.3     1  UNL1        0.0967
     14 C         137.8693  142.9654  162.5610 C.ar    1  UNL1        0.2270
     15 N         136.9752  141.7898  162.8228 N.ar    1  UNL1       -0.1113
     16 N         137.4297  140.6582  161.9493 N.ar    1  UNL1       -0.1055
     17 C         138.6046  141.1344  161.1477 C.ar    1  UNL1        0.2690
     18 O         138.8763  142.5603  161.5257 O.2     1  UNL1       -0.4182
     19 C         144.1552  142.4766  162.1550 C.ar    1  UNL1        0.2207
     20 N         144.0943  143.9583  161.9292 N.ar    1  UNL1       -0.2120
     21 C         143.7631  144.8774  163.0675 C.ar    1  UNL1        0.1034
     22 C         143.4929  144.3148  164.4315 C.ar    1  UNL1        0.0415
     23 C         143.5538  142.8331  164.6572 C.ar    1  UNL1        0.1050
     24 N         143.8850  141.9140  163.5190 N.ar    1  UNL1       -0.2120
     25 C         143.2836  142.2705  166.0212 C.ar    1  UNL1        0.1198
     26 C         142.5269  141.0106  166.3212 C.ar    1  UNL1        0.0381
     27 C         142.4982  140.8304  167.8101 C.ar    1  UNL1        0.0734
     28 N         143.2372  141.9791  168.4302 N.ar    1  UNL1       -0.2515
     29 C         143.4530  142.1991  169.8982 C.3     1  UNL1        0.1534
     30 N         143.7226  142.8691  167.3246 N.ar    1  UNL1       -0.1680
     31 C         141.8453  139.7002  168.5490 C.3     1  UNL1        0.1184
     32 N         140.4579  139.8636  169.0955 N.3     1  UNL1       -0.2652
     33 C         139.2819  139.8774  168.1645 C.3     1  UNL1        0.0900
     34 C         140.2466  140.0131  170.5731 C.3     1  UNL1        0.0900
@<TRIPOS>BOND
     1    13    14    1
     2    14    15   ar
     3    15    16   ar
     4    16    17   ar
     5    17     3    1
     6     3     4   ar
     7     4     5   ar
     8     5     6    1
     9     5     7   ar
    10     7     8   ar
    11     8     9   ar
    12     9    10   ar
    13    10     1    1
    14     1    19    1
    15    19    20   ar
    16    20    21   ar
    17    21    22   ar
    18    22    23   ar
    19    23    25    1
    20    25    26   ar
    21    26    27   ar
    22    27    31    1
    23    31    32    1
    24    32    33    1
    25    32    34    1
    26    27    28   ar
    27    28    29    1
    28    28    30   ar
    29    23    24   ar
    30    10    11   ar
    31    11    12   ar
    32    17    18   ar
    33    18    14   ar
    34    12     3   ar
    35    12     7   ar
    36    24    19   ar
    37    30    25   ar
    38     1     2    1
@<TRIPOS>MOLECULE
*****
 34 38 0 0 0
SMALL
GASTEIGER

@<TRIPOS>ATOM
      1 N         138.4606  139.8261  161.6419 N.pl3   1  UNL1       -0.2825
      2 H         137.5489  139.4992  161.4652 H       1  UNL1        0.1551
      3 C         141.9816  143.7491  160.8440 C.ar    1  UNL1        0.1572
      4 N         141.9852  144.8166  159.7903 N.ar    1  UNL1       -0.1644
      5 N         140.7754  144.6187  158.9259 N.ar    1  UNL1       -0.2487
      6 C         140.3854  145.4626  157.7487 C.3     1  UNL1        0.1537
      7 C         140.0241  143.4289  159.4453 C.ar    1  UNL1        0.0796
      8 C         138.7575  142.7655  158.9921 C.ar    1  UNL1        0.0201
      9 C         138.2363  141.5646  159.7242 C.ar    1  UNL1        0.0162
     10 C         138.9818  141.0271  160.9097 C.ar    1  UNL1        0.0506
     11 C         140.2484  141.6905  161.3630 C.ar    1  UNL1        0.0179
     12 C         140.7696  142.8914  160.6308 C.ar    1  UNL1        0.0425
     13 C         145.8215  141.6961  163.8307 C.3     1  UNL1        0.0967
     14 C         144.7746  142.6268  163.2946 C.ar    1  UNL1        0.2270
     15 N         144.4081  143.9645  163.8657 N.ar    1  UNL1       -0.1113
     16 N         143.3173  144.5478  163.0173 N.ar    1  UNL1       -0.1055
     17 C         143.0095  143.5705  161.9217 C.ar    1  UNL1        0.2690
     18 O         143.9102  142.3833  162.0931 O.2     1  UNL1       -0.4182
     19 C         139.3284  139.1232  162.6433 C.ar    1  UNL1        0.2207
     20 N         140.1439  137.9354  162.2262 N.ar    1  UNL1       -0.2120
     21 C         141.0118  137.2325  163.2277 C.ar    1  UNL1        0.1034
     22 C         141.0641  137.7175  164.6461 C.ar    1  UNL1        0.0415
     23 C         140.2485  138.9053  165.0632 C.ar    1  UNL1        0.1050
     24 N         139.3807  139.6082  164.0618 N.ar    1  UNL1       -0.2120
     25 C         140.3008  139.3903  166.4816 C.ar    1  UNL1        0.1198
     26 C         141.5389  139.7706  167.2383 C.ar    1  UNL1        0.0381
     27 C         141.1275  140.1955  168.6168 C.ar    1  UNL1        0.0734
     28 N         139.6351  140.0777  168.7121 N.ar    1  UNL1       -0.2515
     29 C         138.8002  140.4008  169.9156 C.3     1  UNL1        0.1534
     30 N         139.1243  139.5801  167.3925 N.ar    1  UNL1       -0.1680
     31 C         142.0469  140.6571  169.7084 C.3     1  UNL1        0.1184
     32 N         142.4851  142.0906  169.7638 N.3     1  UNL1       -0.2652
     33 C         143.9451  142.4310  169.7143 C.3     1  UNL1        0.0900
     34 C         141.4632  143.1837  169.8686 C.3     1  UNL1        0.0900
@<TRIPOS>BOND
     1    13    14    1
     2    14    15   ar
     3    15    16   ar
     4    16    17   ar
     5    17     3    1
     6     3     4   ar
     7     4     5   ar
     8     5     6    1
     9     5     7   ar
    10     7     8   ar
    11     8     9   ar
    12     9    10   ar
    13    10     1    1
    14     1    19    1
    15    19    20   ar
    16    20    21   ar
    17    21    22   ar
    18    22    23   ar
    19    23    25    1
    20    25    26   ar
    21    26    27   ar
    22    27    31    1
    23    31    32    1
    24    32    33    1
    25    32    34    1
    26    27    28   ar
    27    28    29    1
    28    28    30   ar
    29    23    24   ar
    30    10    11   ar
    31    11    12   ar
    32    17    18   ar
    33    18    14   ar
    34    12     3   ar
    35    12     7   ar
    36    24    19   ar
    37    30    25   ar
    38     1     2    1
@<TRIPOS>MOLECULE
*****
 34 38 0 0 0
SMALL
GASTEIGER

@<TRIPOS>ATOM
      1 N         144.0910  143.2168  166.2037 N.pl3   1  UNL1       -0.2825
      2 H         144.6234  143.9584  166.5723 H       1  UNL1        0.1551
      3 C         139.7704  140.2152  167.0677 C.ar    1  UNL1        0.1572
      4 N         139.2299  139.6865  168.3632 N.ar    1  UNL1       -0.1644
      5 N         140.1348  140.1494  169.4663 N.ar    1  UNL1       -0.2487
      6 C         139.9690  139.8501  170.9268 C.3     1  UNL1        0.1537
      7 C         141.2345  140.9642  168.8526 C.ar    1  UNL1        0.0796
      8 C         142.4119  141.6744  169.4521 C.ar    1  UNL1        0.0201
      9 C         143.3640  142.4252  168.5691 C.ar    1  UNL1        0.0162
     10 C         143.1388  142.4659  167.0867 C.ar    1  UNL1        0.0506
     11 C         141.9615  141.7557  166.4872 C.ar    1  UNL1        0.0179
     12 C         141.0093  141.0049  167.3701 C.ar    1  UNL1        0.0425
     13 C         138.4825  138.0002  162.4508 C.3     1  UNL1        0.0967
     14 C         138.5843  138.9751  163.5862 C.ar    1  UNL1        0.2270
     15 N         137.9398  140.3282  163.6470 N.ar    1  UNL1       -0.1113
     16 N         138.3056  140.9574  164.9586 N.ar    1  UNL1       -0.1055
     17 C         139.1763  139.9932  165.7084 C.ar    1  UNL1        0.2690
     18 O         139.3485  138.7681  164.8602 O.2     1  UNL1       -0.4182
     19 C         144.2321  142.8377  164.7593 C.ar    1  UNL1        0.2207
     20 N         145.4386  142.0748  164.2985 N.ar    1  UNL1       -0.2120
     21 C         145.5796  141.6957  162.8540 C.ar    1  UNL1        0.1034
     22 C         144.5142  142.0795  161.8704 C.ar    1  UNL1        0.0415
     23 C         143.3077  142.8424  162.3313 C.ar    1  UNL1        0.1050
     24 N         143.1666  143.2215  163.7757 N.ar    1  UNL1       -0.2120
     25 C         142.2422  143.2262  161.3477 C.ar    1  UNL1        0.1198
     26 C         141.0795  142.3753  160.9305 C.ar    1  UNL1        0.0381
     27 C         140.2711  143.1515  159.9336 C.ar    1  UNL1        0.0734
     28 N         140.9342  144.4822  159.7346 N.ar    1  UNL1       -0.2515
     29 C         140.4620  145.5749  158.8219 C.3     1  UNL1        0.1534
     30 N         142.1524  144.5284  160.6085 N.ar    1  UNL1       -0.1680
     31 C         139.0194  142.6799  159.2548 C.3     1  UNL1        0.1184
     32 N         138.8887  141.2458  158.8348 N.3     1  UNL1       -0.2652
     33 C         137.9645  140.3278  159.5785 C.3     1  UNL1        0.0900
     34 C         139.6822  140.7297  157.6711 C.3     1  UNL1        0.0900
@<TRIPOS>BOND
     1    13    14    1
     2    14    15   ar
     3    15    16   ar
     4    16    17   ar
     5    17     3    1
     6     3     4   ar
     7     4     5   ar
     8     5     6    1
     9     5     7   ar
    10     7     8   ar
    11     8     9   ar
    12     9    10   ar
    13    10     1    1
    14     1    19    1
    15    19    20   ar
    16    20    21   ar
    17    21    22   ar
    18    22    23   ar
    19    23    25    1
    20    25    26   ar
    21    26    27   ar
    22    27    31    1
    23    31    32    1
    24    32    33    1
    25    32    34    1
    26    27    28   ar
    27    28    29    1
    28    28    30   ar
    29    23    24   ar
    30    10    11   ar
    31    11    12   ar
    32    17    18   ar
    33    18    14   ar
    34    12     3   ar
    35    12     7   ar
    36    24    19   ar
    37    30    25   ar
    38     1     2    1
@<TRIPOS>MOLECULE
*****
 34 38 0 0 0
SMALL
GASTEIGER

@<TRIPOS>ATOM
      1 N         140.8343  145.5939  161.4597 N.pl3   1  UNL1       -0.2825
      2 H         140.9501  146.5670  161.5537 H       1  UNL1        0.1551
      3 C         143.6563  141.5210  159.4920 C.ar    1  UNL1        0.1572
      4 N         144.1329  141.2915  158.0884 N.ar    1  UNL1       -0.1644
      5 N         143.6755  142.4474  157.2488 N.ar    1  UNL1       -0.2487
      6 C         143.9323  142.6277  155.7820 C.3     1  UNL1        0.1537
      7 C         142.9163  143.3912  158.1336 C.ar    1  UNL1        0.0796
      8 C         142.2342  144.6979  157.8559 C.ar    1  UNL1        0.0201
      9 C         141.5402  145.4321  158.9646 C.ar    1  UNL1        0.0162
     10 C         141.5283  144.8596  160.3510 C.ar    1  UNL1        0.0506
     11 C         142.2104  143.5529  160.6286 C.ar    1  UNL1        0.0179
     12 C         142.9044  142.8186  159.5199 C.ar    1  UNL1        0.0425
     13 C         145.0053  139.7408  164.2765 C.3     1  UNL1        0.0967
     14 C         144.5106  139.7941  162.8616 C.ar    1  UNL1        0.2270
     15 N         143.9912  138.6342  162.0648 N.ar    1  UNL1       -0.1113
     16 N         143.6079  139.1399  160.7056 N.ar    1  UNL1       -0.1055
     17 C         143.8905  140.6124  160.6623 C.ar    1  UNL1        0.2690
     18 O         144.4483  141.0167  161.9947 O.2     1  UNL1       -0.4182
     19 C         139.9639  144.8455  162.4252 C.ar    1  UNL1        0.2207
     20 N         138.4707  144.9239  162.3050 N.ar    1  UNL1       -0.2120
     21 C         137.6003  144.1754  163.2706 C.ar    1  UNL1        0.1034
     22 C         138.2230  143.3487  164.3562 C.ar    1  UNL1        0.0415
     23 C         139.7161  143.2703  164.4764 C.ar    1  UNL1        0.1050
     24 N         140.5865  144.0187  163.5109 N.ar    1  UNL1       -0.2120
     25 C         140.3388  142.4435  165.5621 C.ar    1  UNL1        0.1198
     26 C         140.2925  142.7392  167.0319 C.ar    1  UNL1        0.0381
     27 C         141.0422  141.6544  167.7468 C.ar    1  UNL1        0.0734
     28 N         141.5519  140.6882  166.7187 N.ar    1  UNL1       -0.2515
     29 C         142.3552  139.4514  166.9927 C.3     1  UNL1        0.1534
     30 N         141.1171  141.1760  165.3685 N.ar    1  UNL1       -0.1680
     31 C         141.2465  141.5533  169.2294 C.3     1  UNL1        0.1184
     32 N         142.6226  141.3310  169.7835 N.3     1  UNL1       -0.2652
     33 C         142.9174  140.0996  170.5875 C.3     1  UNL1        0.0900
     34 C         143.7038  142.3403  169.5335 C.3     1  UNL1        0.0900
@<TRIPOS>BOND
     1    13    14    1
     2    14    15   ar
     3    15    16   ar
     4    16    17   ar
     5    17     3    1
     6     3     4   ar
     7     4     5   ar
     8     5     6    1
     9     5     7   ar
    10     7     8   ar
    11     8     9   ar
    12     9    10   ar
    13    10     1    1
    14     1    19    1
    15    19    20   ar
    16    20    21   ar
    17    21    22   ar
    18    22    23   ar
    19    23    25    1
    20    25    26   ar
    21    26    27   ar
    22    27    31    1
    23    31    32    1
    24    32    33    1
    25    32    34    1
    26    27    28   ar
    27    28    29    1
    28    28    30   ar
    29    23    24   ar
    30    10    11   ar
    31    11    12   ar
    32    17    18   ar
    33    18    14   ar
    34    12     3   ar
    35    12     7   ar
    36    24    19   ar
    37    30    25   ar
    38     1     2    1
@<TRIPOS>MOLECULE
*****
 34 38 0 0 0
SMALL
GASTEIGER

@<TRIPOS>ATOM
      1 N         142.2321  137.5254  161.4375 N.pl3   1  UNL1       -0.2825
      2 H         142.7527  136.6979  161.5541 H       1  UNL1        0.1551
      3 C         143.4749  142.3896  159.6435 C.ar    1  UNL1        0.1572
      4 N         143.7953  142.8286  158.2454 N.ar    1  UNL1       -0.1644
      5 N         143.7134  141.6265  157.3520 N.ar    1  UNL1       -0.2487
      6 C         143.9593  141.6093  155.8724 C.3     1  UNL1        0.1537
      7 C         143.3423  140.4446  158.1979 C.ar    1  UNL1        0.0796
      8 C         143.1197  138.9999  157.8615 C.ar    1  UNL1        0.0201
      9 C         142.7496  138.0269  158.9414 C.ar    1  UNL1        0.0162
     10 C         142.6022  138.4985  160.3576 C.ar    1  UNL1        0.0506
     11 C         142.8249  139.9432  160.6940 C.ar    1  UNL1        0.0179
     12 C         143.1950  140.9163  159.6142 C.ar    1  UNL1        0.0425
     13 C         141.7336  145.4180  163.6030 C.3     1  UNL1        0.0967
     14 C         142.6401  144.6616  162.6779 C.ar    1  UNL1        0.2270
     15 N         144.1350  144.5856  162.7752 N.ar    1  UNL1       -0.1113
     16 N         144.6297  143.7253  161.6504 N.ar    1  UNL1       -0.1055
     17 C         143.4405  143.2695  160.8579 C.ar    1  UNL1        0.2690
     18 O         142.2110  143.8482  161.4928 O.2     1  UNL1       -0.4182
     19 C         141.0689  137.8130  162.3399 C.ar    1  UNL1        0.2207
     20 N         139.6695  137.5575  161.8641 N.ar    1  UNL1       -0.2120
     21 C         138.5063  137.8451  162.7665 C.ar    1  UNL1        0.1034
     22 C         138.7425  138.3882  164.1446 C.ar    1  UNL1        0.0415
     23 C         140.1419  138.6438  164.6204 C.ar    1  UNL1        0.1050
     24 N         141.3051  138.3561  163.7180 N.ar    1  UNL1       -0.2120
     25 C         140.3782  139.1869  165.9984 C.ar    1  UNL1        0.1198
     26 C         141.7141  139.4889  166.6101 C.ar    1  UNL1        0.0381
     27 C         141.4816  140.0121  167.9965 C.ar    1  UNL1        0.0734
     28 N         140.0019  140.0333  168.2418 N.ar    1  UNL1       -0.2515
     29 C         139.3232  140.4852  169.5008 C.3     1  UNL1        0.1534
     30 N         139.3200  139.5233  167.0069 N.ar    1  UNL1       -0.1680
     31 C         142.5424  140.4390  168.9673 C.3     1  UNL1        0.1184
     32 N         143.1155  141.8231  168.8913 N.3     1  UNL1       -0.2652
     33 C         143.3221  142.4770  167.5572 C.3     1  UNL1        0.0900
     34 C         143.4818  142.5533  170.1493 C.3     1  UNL1        0.0900
@<TRIPOS>BOND
     1    13    14    1
     2    14    15   ar
     3    15    16   ar
     4    16    17   ar
     5    17     3    1
     6     3     4   ar
     7     4     5   ar
     8     5     6    1
     9     5     7   ar
    10     7     8   ar
    11     8     9   ar
    12     9    10   ar
    13    10     1    1
    14     1    19    1
    15    19    20   ar
    16    20    21   ar
    17    21    22   ar
    18    22    23   ar
    19    23    25    1
    20    25    26   ar
    21    26    27   ar
    22    27    31    1
    23    31    32    1
    24    32    33    1
    25    32    34    1
    26    27    28   ar
    27    28    29    1
    28    28    30   ar
    29    23    24   ar
    30    10    11   ar
    31    11    12   ar
    32    17    18   ar
    33    18    14   ar
    34    12     3   ar
    35    12     7   ar
    36    24    19   ar
    37    30    25   ar
    38     1     2    1
@<TRIPOS>MOLECULE
*****
 34 38 0 0 0
SMALL
GASTEIGER

@<TRIPOS>ATOM
      1 N         144.2147  143.1664  160.5190 N.pl3   1  UNL1       -0.2825
      2 H         145.1194  143.0655  160.1439 H       1  UNL1        0.1551
      3 C         138.9819  142.6429  159.6434 C.ar    1  UNL1        0.1572
      4 N         138.2468  142.5405  158.3399 N.ar    1  UNL1       -0.1644
      5 N         139.2557  142.6103  157.2321 N.ar    1  UNL1       -0.2487
      6 C         138.9583  142.5458  155.7633 C.3     1  UNL1        0.1537
      7 C         140.6143  142.7557  157.8510 C.ar    1  UNL1        0.0796
      8 C         141.9837  142.8724  157.2500 C.ar    1  UNL1        0.0201
      9 C         143.1838  143.0093  158.1394 C.ar    1  UNL1        0.0162
     10 C         143.0145  143.0295  159.6297 C.ar    1  UNL1        0.0506
     11 C         141.6452  142.9128  160.2306 C.ar    1  UNL1        0.0179
     12 C         140.4451  142.7759  159.3413 C.ar    1  UNL1        0.0425
     13 C         137.5115  144.0413  164.5181 C.3     1  UNL1        0.0967
     14 C         137.6866  143.2597  163.2500 C.ar    1  UNL1        0.2270
     15 N         137.1320  141.8939  162.9724 N.ar    1  UNL1       -0.1113
     16 N         137.5497  141.4966  161.5876 N.ar    1  UNL1       -0.1055
     17 C         138.3625  142.6169  161.0093 C.ar    1  UNL1        0.2690
     18 O         138.4470  143.7064  162.0367 O.2     1  UNL1       -0.4182
     19 C         144.0366  143.4570  161.9797 C.ar    1  UNL1        0.2207
     20 N         144.0742  144.8731  162.4728 N.ar    1  UNL1       -0.2120
     21 C         143.8960  145.1637  163.9336 C.ar    1  UNL1        0.1034
     22 C         143.6802  144.0381  164.9013 C.ar    1  UNL1        0.0415
     23 C         143.6426  142.6220  164.4082 C.ar    1  UNL1        0.1050
     24 N         143.8208  142.3314  162.9475 N.ar    1  UNL1       -0.2120
     25 C         143.4269  141.4964  165.3759 C.ar    1  UNL1        0.1198
     26 C         142.7825  141.6057  166.7261 C.ar    1  UNL1        0.0381
     27 C         142.7750  140.2407  167.3480 C.ar    1  UNL1        0.0734
     28 N         143.4147  139.2878  166.3822 N.ar    1  UNL1       -0.2515
     29 C         143.6162  137.8170  166.5974 C.3     1  UNL1        0.1534
     30 N         143.8176  140.0639  165.1634 N.ar    1  UNL1       -0.1680
     31 C         142.2245  139.8902  168.6986 C.3     1  UNL1        0.1184
     32 N         140.7500  139.9887  168.9561 N.3     1  UNL1       -0.2652
     33 C         140.2407  140.1112  170.3616 C.3     1  UNL1        0.0900
     34 C         139.7849  139.9647  167.8080 C.3     1  UNL1        0.0900
@<TRIPOS>BOND
     1    13    14    1
     2    14    15   ar
     3    15    16   ar
     4    16    17   ar
     5    17     3    1
     6     3     4   ar
     7     4     5   ar
     8     5     6    1
     9     5     7   ar
    10     7     8   ar
    11     8     9   ar
    12     9    10   ar
    13    10     1    1
    14     1    19    1
    15    19    20   ar
    16    20    21   ar
    17    21    22   ar
    18    22    23   ar
    19    23    25    1
    20    25    26   ar
    21    26    27   ar
    22    27    31    1
    23    31    32    1
    24    32    33    1
    25    32    34    1
    26    27    28   ar
    27    28    29    1
    28    28    30   ar
    29    23    24   ar
    30    10    11   ar
    31    11    12   ar
    32    17    18   ar
    33    18    14   ar
    34    12     3   ar
    35    12     7   ar
    36    24    19   ar
    37    30    25   ar
    38     1     2    1
@<TRIPOS>MOLECULE
*****
 34 38 0 0 0
SMALL
GASTEIGER

@<TRIPOS>ATOM
      1 N         144.6075  141.8272  161.0691 N.pl3   1  UNL1       -0.2825
      2 H         145.5372  141.7197  160.7634 H       1  UNL1        0.1551
      3 C         140.4410  138.5035  160.9394 C.ar    1  UNL1        0.1572
      4 N         139.5930  138.0952  159.7714 N.ar    1  UNL1       -0.1644
      5 N         140.1124  138.7994  158.5530 N.ar    1  UNL1       -0.2487
      6 C         139.5598  138.6809  157.1635 C.3     1  UNL1        0.1537
      7 C         141.2812  139.6429  158.9680 C.ar    1  UNL1        0.0796
      8 C         142.1869  140.5538  158.1935 C.ar    1  UNL1        0.0201
      9 C         143.2956  141.2819  158.8939 C.ar    1  UNL1        0.0162
     10 C         143.4987  141.0991  160.3688 C.ar    1  UNL1        0.0506
     11 C         142.5931  140.1881  161.1433 C.ar    1  UNL1        0.0179
     12 C         141.4843  139.4600  160.4429 C.ar    1  UNL1        0.0425
     13 C         138.3653  137.5372  165.6974 C.3     1  UNL1        0.0967
     14 C         139.3206  137.5930  164.5424 C.ar    1  UNL1        0.2270
     15 N         140.7174  137.0462  164.5262 N.ar    1  UNL1       -0.1113
     16 N         141.3070  137.3207  163.1746 N.ar    1  UNL1       -0.1055
     17 C         140.2747  138.0372  162.3554 C.ar    1  UNL1        0.2690
     18 O         139.0472  138.2055  163.2007 O.2     1  UNL1       -0.4182
     19 C         144.2999  142.7190  162.2353 C.ar    1  UNL1        0.2207
     20 N         144.2837  144.2083  162.0568 N.ar    1  UNL1       -0.2120
     21 C         143.9761  145.1001  163.2231 C.ar    1  UNL1        0.1034
     22 C         143.6847  144.5027  164.5677 C.ar    1  UNL1        0.0415
     23 C         143.7009  143.0134  164.7462 C.ar    1  UNL1        0.1050
     24 N         144.0085  142.1216  163.5800 N.ar    1  UNL1       -0.2120
     25 C         143.4096  142.4160  166.0908 C.ar    1  UNL1        0.1198
     26 C         142.6507  141.1475  166.3464 C.ar    1  UNL1        0.0381
     27 C         142.5980  140.9297  167.8295 C.ar    1  UNL1        0.0734
     28 N         143.3243  142.0635  168.4906 N.ar    1  UNL1       -0.2515
     29 C         143.5155  142.2466  169.9671 C.3     1  UNL1        0.1534
     30 N         143.8258  142.9821  167.4161 N.ar    1  UNL1       -0.1680
     31 C         141.9354  139.7799  168.5288 C.3     1  UNL1        0.1184
     32 N         140.5795  139.9577  169.1450 N.3     1  UNL1       -0.2652
     33 C         140.4467  140.1285  170.6293 C.3     1  UNL1        0.0900
     34 C         139.3562  139.9646  168.2769 C.3     1  UNL1        0.0900
@<TRIPOS>BOND
     1    13    14    1
     2    14    15   ar
     3    15    16   ar
     4    16    17   ar
     5    17     3    1
     6     3     4   ar
     7     4     5   ar
     8     5     6    1
     9     5     7   ar
    10     7     8   ar
    11     8     9   ar
    12     9    10   ar
    13    10     1    1
    14     1    19    1
    15    19    20   ar
    16    20    21   ar
    17    21    22   ar
    18    22    23   ar
    19    23    25    1
    20    25    26   ar
    21    26    27   ar
    22    27    31    1
    23    31    32    1
    24    32    33    1
    25    32    34    1
    26    27    28   ar
    27    28    29    1
    28    28    30   ar
    29    23    24   ar
    30    10    11   ar
    31    11    12   ar
    32    17    18   ar
    33    18    14   ar
    34    12     3   ar
    35    12     7   ar
    36    24    19   ar
    37    30    25   ar
    38     1     2    1
