@<TRIPOS>MOLECULE
*****
 37 40 0 0 0
SMALL
GASTEIGER

@<TRIPOS>ATOM
      1 N         140.6625  138.3385  159.6306 N.am    1  UNL1       -0.3018
      2 C         139.6185  138.7215  158.6238 C.2     1  UNL1        0.2426
      3 O         138.3426  139.3682  159.0754 O.2     1  UNL1       -0.2733
      4 H         141.4999  137.9141  159.3342 H       1  UNL1        0.1495
      5 N         140.1025  138.9750  163.1512 N.3     1  UNL1       -0.2711
      6 C         140.6176  137.8149  162.3519 C.3     1  UNL1        0.0933
      7 C         140.4305  138.6021  161.0888 C.3     1  UNL1        0.1035
      8 C         139.9154  139.7622  161.8882 C.3     1  UNL1        0.0933
      9 C         139.4067  139.7661  167.5261 C.3     1  UNL1        0.1248
     10 O         138.3986  139.4801  168.5994 O.3     1  UNL1       -0.3811
     11 C         140.6415  140.2917  166.8561 C.3     1  UNL1        0.0341
     12 C         140.8734  140.0280  165.3978 C.3     1  UNL1        0.0188
     13 C         139.8705  139.2387  164.6096 C.3     1  UNL1        0.0578
     14 C         138.6357  138.7131  165.2796 C.3     1  UNL1        0.0188
     15 C         138.4038  138.9768  166.7379 C.3     1  UNL1        0.0341
     16 H         138.6937  139.8764  169.4341 H       1  UNL1        0.2107
     17 C         142.5993  142.8480  170.3880 C.3     1  UNL1        0.1538
     18 N         141.5268  141.8726  170.0027 N.ar    1  UNL1       -0.2476
     19 C         140.6005  141.1629  170.9451 C.ar    1  UNL1        0.0965
     20 C         139.6936  140.2874  170.1321 C.ar    1  UNL1        0.0390
     21 C         140.0594  140.4561  168.6871 C.ar    1  UNL1        0.1041
     22 N         141.1924  141.4358  168.6072 N.ar    1  UNL1       -0.1713
     23 C         139.8504  138.4579  157.1655 C.3     1  UNL1        0.1759
     24 N         140.3361  137.1122  156.7146 N.am    1  UNL1       -0.2931
     25 C         141.7996  136.7872  156.7658 C.2     1  UNL1        0.2462
     26 O         142.7774  137.8079  157.2678 O.2     1  UNL1       -0.2701
     27 H         139.6943  136.4423  156.3851 H       1  UNL1        0.1502
     28 C         142.2852  135.4416  156.3149 C.ar    1  UNL1        0.0533
     29 C         141.7162  134.8151  155.0765 C.ar    1  UNL1        0.0045
     30 C         142.2019  133.4694  154.6256 C.ar    1  UNL1        0.0001
     31 C         143.2566  132.7502  155.4132 C.ar    1  UNL1        0.0039
     32 C         143.8256  133.3766  156.6517 C.ar    1  UNL1        0.0716
     33 C         143.3400  134.7223  157.1025 C.ar    1  UNL1        0.0084
     34 C         144.8803  132.6574  157.4393 C.3     1  UNL1        0.4186
     35 F         145.9350  131.9381  158.2269 F       1  UNL1       -0.1659
     36 F         145.2014  131.8153  156.2402 F       1  UNL1       -0.1659
     37 F         144.5591  133.4995  158.6383 F       1  UNL1       -0.1659
@<TRIPOS>BOND
     1    17    18    1
     2    18    19   ar
     3    19    20   ar
     4    20    21   ar
     5    21     9    1
     6     9    10    1
     7     9    11    1
     8    11    12    1
     9    12    13    1
    10    13     5    1
    11     5     6    1
    12     6     7    1
    13     7     1    1
    14     1     2   am
    15     2     3    2
    16     2    23    1
    17    23    24    1
    18    24    25   am
    19    25    26    2
    20    25    28    1
    21    28    29   ar
    22    29    30   ar
    23    30    31   ar
    24    31    32   ar
    25    32    34    1
    26    34    35    1
    27    34    36    1
    28    34    37    1
    29    32    33   ar
    30     7     8    1
    31    13    14    1
    32    14    15    1
    33    21    22   ar
    34    22    18   ar
    35    15     9    1
    36     8     5    1
    37    33    28   ar
    38    10    16    1
    39     1     4    1
    40    24    27    1
@<TRIPOS>MOLECULE
*****
 37 40 0 0 0
SMALL
GASTEIGER

@<TRIPOS>ATOM
      1 N         141.1052  138.3793  159.4258 N.am    1  UNL1       -0.3018
      2 C         142.5287  138.3853  158.9529 C.2     1  UNL1        0.2426
      3 O         143.6412  138.6406  159.9260 O.2     1  UNL1       -0.2733
      4 H         140.3750  138.2117  158.7871 H       1  UNL1        0.1495
      5 N         140.3546  138.9810  162.9170 N.3     1  UNL1       -0.2711
      6 C         140.2668  139.7919  161.6582 C.3     1  UNL1        0.0933
      7 C         140.7943  138.6285  160.8719 C.3     1  UNL1        0.1035
      8 C         140.8821  137.8176  162.1307 C.3     1  UNL1        0.0933
      9 C         139.4220  139.7286  167.2554 C.3     1  UNL1        0.1248
     10 O         138.3962  139.3684  168.2888 O.3     1  UNL1       -0.3811
     11 C         140.6386  140.3465  166.6325 C.3     1  UNL1        0.0341
     12 C         140.9495  140.0972  165.1864 C.3     1  UNL1        0.0188
     13 C         140.0437  139.2302  164.3632 C.3     1  UNL1        0.0578
     14 C         138.8270  138.6124  164.9860 C.3     1  UNL1        0.0188
     15 C         138.5162  138.8616  166.4321 C.3     1  UNL1        0.0341
     16 H         138.6255  139.7889  169.1323 H       1  UNL1        0.2107
     17 C         142.5166  142.7274  170.3069 C.3     1  UNL1        0.1538
     18 N         141.3939  141.8489  169.8402 N.ar    1  UNL1       -0.2476
     19 C         140.2400  141.3756  170.6735 C.ar    1  UNL1        0.0965
     20 C         139.3609  140.5237  169.8067 C.ar    1  UNL1        0.0390
     21 C         139.9715  140.4705  168.4375 C.ar    1  UNL1        0.1041
     22 N         141.2279  141.2896  168.4583 N.ar    1  UNL1       -0.1713
     23 C         142.8396  138.1361  157.5068 C.3     1  UNL1        0.1759
     24 N         142.6022  136.7799  156.9116 N.am    1  UNL1       -0.2931
     25 C         143.5841  136.2083  155.9321 C.2     1  UNL1        0.2462
     26 O         144.8034  136.9930  155.5480 O.2     1  UNL1       -0.2701
     27 H         141.8019  136.2649  157.1637 H       1  UNL1        0.1502
     28 C         143.3467  134.8521  155.3369 C.ar    1  UNL1        0.0533
     29 C         142.5634  134.7180  154.0648 C.ar    1  UNL1        0.0045
     30 C         142.3261  133.3617  153.4696 C.ar    1  UNL1        0.0001
     31 C         142.8720  132.1396  154.1466 C.ar    1  UNL1        0.0039
     32 C         143.6552  132.2737  155.4187 C.ar    1  UNL1        0.0716
     33 C         143.8926  133.6299  156.0139 C.ar    1  UNL1        0.0084
     34 C         144.2011  131.0516  156.0957 C.3     1  UNL1        0.4186
     35 F         144.7471  129.8294  156.7728 F       1  UNL1       -0.1659
     36 F         145.5452  131.7095  156.1995 F       1  UNL1       -0.1659
     37 F         142.8571  130.3937  155.9919 F       1  UNL1       -0.1659
@<TRIPOS>BOND
     1    17    18    1
     2    18    19   ar
     3    19    20   ar
     4    20    21   ar
     5    21     9    1
     6     9    10    1
     7     9    11    1
     8    11    12    1
     9    12    13    1
    10    13     5    1
    11     5     6    1
    12     6     7    1
    13     7     1    1
    14     1     2   am
    15     2     3    2
    16     2    23    1
    17    23    24    1
    18    24    25   am
    19    25    26    2
    20    25    28    1
    21    28    29   ar
    22    29    30   ar
    23    30    31   ar
    24    31    32   ar
    25    32    34    1
    26    34    35    1
    27    34    36    1
    28    34    37    1
    29    32    33   ar
    30     7     8    1
    31    13    14    1
    32    14    15    1
    33    21    22   ar
    34    22    18   ar
    35    15     9    1
    36     8     5    1
    37    33    28   ar
    38    10    16    1
    39     1     4    1
    40    24    27    1
@<TRIPOS>MOLECULE
*****
 37 40 0 0 0
SMALL
GASTEIGER

@<TRIPOS>ATOM
      1 N         143.3873  138.1086  160.2283 N.am    1  UNL1       -0.3018
      2 C         142.4774  138.7805  159.2430 C.2     1  UNL1        0.2426
      3 O         141.4335  139.7449  159.7229 O.2     1  UNL1       -0.2733
      4 H         144.0724  137.4757  159.9133 H       1  UNL1        0.1495
      5 N         143.0640  138.8150  163.7653 N.3     1  UNL1       -0.2711
      6 C         144.0338  139.2061  162.6899 C.3     1  UNL1        0.0933
      7 C         143.2534  138.4012  161.6933 C.3     1  UNL1        0.1035
      8 C         142.2836  138.0100  162.7687 C.3     1  UNL1        0.0933
      9 C         142.6620  139.6926  168.1605 C.3     1  UNL1        0.1248
     10 O         143.0114  139.0905  169.4891 O.3     1  UNL1       -0.3811
     11 C         142.1199  140.6595  167.1500 C.3     1  UNL1        0.0341
     12 C         142.2539  140.3670  165.6849 C.3     1  UNL1        0.0188
     13 C         142.9300  139.1075  165.2304 C.3     1  UNL1        0.0578
     14 C         143.4721  138.1406  166.2409 C.3     1  UNL1        0.0188
     15 C         143.3381  138.4332  167.7059 C.3     1  UNL1        0.0341
     16 H         142.7058  139.6757  170.1998 H       1  UNL1        0.2107
     17 C         140.3874  144.1147  169.9361 C.3     1  UNL1        0.1538
     18 N         141.0618  142.7755  169.8928 N.ar    1  UNL1       -0.2476
     19 C         141.4456  141.9428  171.0798 C.ar    1  UNL1        0.0965
     20 C         142.0917  140.6866  170.5754 C.ar    1  UNL1        0.0390
     21 C         142.1073  140.7429  169.0765 C.ar    1  UNL1        0.1041
     22 N         141.4707  142.0340  168.6546 N.ar    1  UNL1       -0.1713
     23 C         142.6113  138.4880  157.7779 C.3     1  UNL1        0.1759
     24 N         143.0999  137.1448  157.3230 N.am    1  UNL1       -0.2931
     25 C         142.1858  136.2335  156.5587 C.2     1  UNL1        0.2462
     26 O         140.7831  136.6656  156.2493 O.2     1  UNL1       -0.2701
     27 H         144.0206  136.8612  157.5261 H       1  UNL1        0.1502
     28 C         142.6745  134.8903  156.1037 C.ar    1  UNL1        0.0533
     29 C         142.3072  134.3805  154.7417 C.ar    1  UNL1        0.0045
     30 C         142.7959  133.0372  154.2868 C.ar    1  UNL1        0.0001
     31 C         143.6518  132.2039  155.1939 C.ar    1  UNL1        0.0039
     32 C         144.0190  132.7137  156.5560 C.ar    1  UNL1        0.0716
     33 C         143.5304  134.0569  157.0109 C.ar    1  UNL1        0.0084
     34 C         144.8749  131.8803  157.4631 C.3     1  UNL1        0.4186
     35 F         145.7308  131.0469  158.3702 F       1  UNL1       -0.1659
     36 F         144.7760  130.7328  156.5021 F       1  UNL1       -0.1659
     37 F         144.9738  133.0279  158.4240 F       1  UNL1       -0.1659
@<TRIPOS>BOND
     1    17    18    1
     2    18    19   ar
     3    19    20   ar
     4    20    21   ar
     5    21     9    1
     6     9    10    1
     7     9    11    1
     8    11    12    1
     9    12    13    1
    10    13     5    1
    11     5     6    1
    12     6     7    1
    13     7     1    1
    14     1     2   am
    15     2     3    2
    16     2    23    1
    17    23    24    1
    18    24    25   am
    19    25    26    2
    20    25    28    1
    21    28    29   ar
    22    29    30   ar
    23    30    31   ar
    24    31    32   ar
    25    32    34    1
    26    34    35    1
    27    34    36    1
    28    34    37    1
    29    32    33   ar
    30     7     8    1
    31    13    14    1
    32    14    15    1
    33    21    22   ar
    34    22    18   ar
    35    15     9    1
    36     8     5    1
    37    33    28   ar
    38    10    16    1
    39     1     4    1
    40    24    27    1
@<TRIPOS>MOLECULE
*****
 37 40 0 0 0
SMALL
GASTEIGER

@<TRIPOS>ATOM
      1 N         141.0944  138.3309  159.4874 N.am    1  UNL1       -0.3018
      2 C         140.0342  138.5425  158.4475 C.2     1  UNL1        0.2426
      3 O         138.6726  139.0246  158.8520 O.2     1  UNL1       -0.2733
      4 H         141.9881  138.0145  159.2220 H       1  UNL1        0.1495
      5 N         140.3666  138.9837  162.9742 N.3     1  UNL1       -0.2711
      6 C         140.2604  139.7725  161.7028 C.3     1  UNL1        0.0933
      7 C         140.7929  138.6013  160.9317 C.3     1  UNL1        0.1035
      8 C         140.8991  137.8125  162.2031 C.3     1  UNL1        0.0933
      9 C         139.4622  139.7949  167.3071 C.3     1  UNL1        0.1248
     10 O         138.4589  139.4274  168.3599 O.3     1  UNL1       -0.3811
     11 C         140.6536  140.4338  166.6573 C.3     1  UNL1        0.0341
     12 C         140.9550  140.1634  165.2130 C.3     1  UNL1        0.0188
     13 C         140.0651  139.2541  164.4186 C.3     1  UNL1        0.0578
     14 C         138.8737  138.6152  165.0684 C.3     1  UNL1        0.0188
     15 C         138.5723  138.8856  166.5127 C.3     1  UNL1        0.0341
     16 H         138.6857  139.8717  169.1918 H       1  UNL1        0.2107
     17 C         142.6179  142.7572  170.3316 C.3     1  UNL1        0.1538
     18 N         141.4541  141.9382  169.8575 N.ar    1  UNL1       -0.2476
     19 C         140.2193  141.6207  170.6476 C.ar    1  UNL1        0.0965
     20 C         139.3228  140.7792  169.7884 C.ar    1  UNL1        0.0390
     21 C         140.0036  140.5766  168.4672 C.ar    1  UNL1        0.1041
     22 N         141.3209  141.2929  168.5099 N.ar    1  UNL1       -0.1713
     23 C         140.3357  138.2721  157.0033 C.3     1  UNL1        0.1759
     24 N         140.6897  136.8841  156.5582 N.am    1  UNL1       -0.2931
     25 C         142.0988  136.3886  156.6964 C.2     1  UNL1        0.2462
     26 O         143.1539  137.2812  157.2797 O.2     1  UNL1       -0.2701
     27 H         139.9973  136.2983  156.1753 H       1  UNL1        0.1502
     28 C         142.4528  135.0007  156.2513 C.ar    1  UNL1        0.0533
     29 C         143.7547  134.3868  156.6735 C.ar    1  UNL1        0.0045
     30 C         144.1087  132.9987  156.2283 C.ar    1  UNL1        0.0001
     31 C         143.1608  132.2247  155.3610 C.ar    1  UNL1        0.0039
     32 C         141.8590  132.8386  154.9387 C.ar    1  UNL1        0.0716
     33 C         141.5050  134.2265  155.3839 C.ar    1  UNL1        0.0084
     34 C         140.9111  132.0645  154.0714 C.3     1  UNL1        0.4186
     35 F         139.9632  131.2904  153.2040 F       1  UNL1       -0.1659
     36 F         141.1199  133.0522  152.9619 F       1  UNL1       -0.1659
     37 F         140.7024  131.0769  155.1809 F       1  UNL1       -0.1659
@<TRIPOS>BOND
     1    17    18    1
     2    18    19   ar
     3    19    20   ar
     4    20    21   ar
     5    21     9    1
     6     9    10    1
     7     9    11    1
     8    11    12    1
     9    12    13    1
    10    13     5    1
    11     5     6    1
    12     6     7    1
    13     7     1    1
    14     1     2   am
    15     2     3    2
    16     2    23    1
    17    23    24    1
    18    24    25   am
    19    25    26    2
    20    25    28    1
    21    28    29   ar
    22    29    30   ar
    23    30    31   ar
    24    31    32   ar
    25    32    34    1
    26    34    35    1
    27    34    36    1
    28    34    37    1
    29    32    33   ar
    30     7     8    1
    31    13    14    1
    32    14    15    1
    33    21    22   ar
    34    22    18   ar
    35    15     9    1
    36     8     5    1
    37    33    28   ar
    38    10    16    1
    39     1     4    1
    40    24    27    1
@<TRIPOS>MOLECULE
*****
 37 40 0 0 0
SMALL
GASTEIGER

@<TRIPOS>ATOM
      1 N         143.8281  139.1038  159.4721 N.am    1  UNL1       -0.3018
      2 C         143.2017  140.0767  158.5176 C.2     1  UNL1        0.2426
      3 O         142.3808  141.2179  159.0409 O.2     1  UNL1       -0.2733
      4 H         144.3669  138.3548  159.1287 H       1  UNL1        0.1495
      5 N         143.3588  139.5103  163.0398 N.3     1  UNL1       -0.2711
      6 C         144.3740  139.9848  162.0427 C.3     1  UNL1        0.0933
      7 C         143.6337  139.2722  160.9499 C.3     1  UNL1        0.1035
      8 C         142.6185  138.7977  161.9470 C.3     1  UNL1        0.0933
      9 C         142.7755  140.0153  167.4731 C.3     1  UNL1        0.1248
     10 O         142.9081  139.2329  168.7460 O.3     1  UNL1       -0.3811
     11 C         142.4933  141.1589  166.5445 C.3     1  UNL1        0.0341
     12 C         142.6878  140.9906  165.0667 C.3     1  UNL1        0.0188
     13 C         143.1644  139.6786  164.5176 C.3     1  UNL1        0.0578
     14 C         143.4465  138.5350  165.4463 C.3     1  UNL1        0.0188
     15 C         143.2521  138.7033  166.9240 C.3     1  UNL1        0.0341
     16 H         142.6559  139.7924  169.4972 H       1  UNL1        0.2107
     17 C         139.7913  142.9836  170.6615 C.3     1  UNL1        0.1538
     18 N         140.9734  142.4199  169.9299 N.ar    1  UNL1       -0.2476
     19 C         142.3918  142.8928  170.0496 C.ar    1  UNL1        0.0965
     20 C         143.2395  142.0496  169.1439 C.ar    1  UNL1        0.0390
     21 C         142.3449  141.0555  168.4644 C.ar    1  UNL1        0.1041
     22 N         140.9444  141.2845  168.9502 N.ar    1  UNL1       -0.1713
     23 C         143.3961  139.9084  157.0398 C.3     1  UNL1        0.1759
     24 N         142.8172  138.7156  156.3383 N.am    1  UNL1       -0.2931
     25 C         143.7193  137.7603  155.6146 C.2     1  UNL1        0.2462
     26 O         145.2002  137.9979  155.5924 O.2     1  UNL1       -0.2701
     27 H         141.8453  138.5596  156.3529 H       1  UNL1        0.1502
     28 C         143.1405  136.5675  154.9131 C.ar    1  UNL1        0.0533
     29 C         142.1893  136.7587  153.7692 C.ar    1  UNL1        0.0045
     30 C         141.6105  135.5657  153.0677 C.ar    1  UNL1        0.0001
     31 C         141.9829  134.1818  153.5101 C.ar    1  UNL1        0.0039
     32 C         142.9341  133.9906  154.6541 C.ar    1  UNL1        0.0716
     33 C         143.5130  135.1834  155.3555 C.ar    1  UNL1        0.0084
     34 C         143.3066  132.6066  155.0965 C.3     1  UNL1        0.4186
     35 F         143.6791  131.2225  155.5390 F       1  UNL1       -0.1659
     36 F         144.4247  133.1714  155.9218 F       1  UNL1       -0.1659
     37 F         142.1885  132.0419  154.2713 F       1  UNL1       -0.1659
@<TRIPOS>BOND
     1    17    18    1
     2    18    19   ar
     3    19    20   ar
     4    20    21   ar
     5    21     9    1
     6     9    10    1
     7     9    11    1
     8    11    12    1
     9    12    13    1
    10    13     5    1
    11     5     6    1
    12     6     7    1
    13     7     1    1
    14     1     2   am
    15     2     3    2
    16     2    23    1
    17    23    24    1
    18    24    25   am
    19    25    26    2
    20    25    28    1
    21    28    29   ar
    22    29    30   ar
    23    30    31   ar
    24    31    32   ar
    25    32    34    1
    26    34    35    1
    27    34    36    1
    28    34    37    1
    29    32    33   ar
    30     7     8    1
    31    13    14    1
    32    14    15    1
    33    21    22   ar
    34    22    18   ar
    35    15     9    1
    36     8     5    1
    37    33    28   ar
    38    10    16    1
    39     1     4    1
    40    24    27    1
@<TRIPOS>MOLECULE
*****
 37 40 0 0 0
SMALL
GASTEIGER

@<TRIPOS>ATOM
      1 N         142.6316  137.6418  159.9336 N.am    1  UNL1       -0.3018
      2 C         142.7946  138.7114  158.8946 C.2     1  UNL1        0.2426
      3 O         142.9128  140.1481  159.3093 O.2     1  UNL1       -0.2733
      4 H         142.5541  136.6989  159.6615 H       1  UNL1        0.1495
      5 N         142.5233  138.5282  163.4431 N.3     1  UNL1       -0.2711
      6 C         141.6277  137.7633  162.5142 C.3     1  UNL1        0.0933
      7 C         142.5868  138.0090  161.3873 C.3     1  UNL1        0.1035
      8 C         143.4823  138.7739  162.3162 C.3     1  UNL1        0.0933
      9 C         142.3888  139.6298  167.8041 C.3     1  UNL1        0.1248
     10 O         143.0279  139.2472  169.1061 O.3     1  UNL1       -0.3811
     11 C         141.5040  140.3406  166.8234 C.3     1  UNL1        0.0341
     12 C         141.5489  139.9734  165.3698 C.3     1  UNL1        0.0188
     13 C         142.4785  138.8954  164.8968 C.3     1  UNL1        0.0578
     14 C         143.3633  138.1846  165.8775 C.3     1  UNL1        0.0188
     15 C         143.3185  138.5518  167.3312 C.3     1  UNL1        0.0341
     16 H         142.6588  139.7910  169.8195 H       1  UNL1        0.2107
     17 C         140.3693  144.0347  169.9016 C.3     1  UNL1        0.1538
     18 N         140.7529  142.5996  169.6935 N.ar    1  UNL1       -0.2476
     19 C         140.4314  141.4588  170.6128 C.ar    1  UNL1        0.0965
     20 C         141.0051  140.2075  170.0169 C.ar    1  UNL1        0.0390
     21 C         141.6812  140.5749  168.7293 C.ar    1  UNL1        0.1041
     22 N         141.5253  142.0534  168.5294 N.ar    1  UNL1       -0.1713
     23 C         142.8395  138.3443  157.4409 C.3     1  UNL1        0.1759
     24 N         143.1803  136.9420  157.0318 N.am    1  UNL1       -0.2931
     25 C         142.1280  136.0603  156.4273 C.2     1  UNL1        0.2462
     26 O         140.7348  136.5810  156.2320 O.2     1  UNL1       -0.2701
     27 H         144.0946  136.6003  157.1600 H       1  UNL1        0.1502
     28 C         142.4688  134.6581  156.0181 C.ar    1  UNL1        0.0533
     29 C         143.8234  134.0941  156.3296 C.ar    1  UNL1        0.0045
     30 C         144.1642  132.6918  155.9204 C.ar    1  UNL1        0.0001
     31 C         143.1504  131.8535  155.1997 C.ar    1  UNL1        0.0039
     32 C         141.7958  132.4174  154.8882 C.ar    1  UNL1        0.0716
     33 C         141.4550  133.8196  155.2974 C.ar    1  UNL1        0.0084
     34 C         140.7820  131.5791  154.1676 C.3     1  UNL1        0.4186
     35 F         139.7681  130.7406  153.4469 F       1  UNL1       -0.1659
     36 F         141.0277  130.4549  155.1299 F       1  UNL1       -0.1659
     37 F         140.5363  132.7032  153.2054 F       1  UNL1       -0.1659
@<TRIPOS>BOND
     1    17    18    1
     2    18    19   ar
     3    19    20   ar
     4    20    21   ar
     5    21     9    1
     6     9    10    1
     7     9    11    1
     8    11    12    1
     9    12    13    1
    10    13     5    1
    11     5     6    1
    12     6     7    1
    13     7     1    1
    14     1     2   am
    15     2     3    2
    16     2    23    1
    17    23    24    1
    18    24    25   am
    19    25    26    2
    20    25    28    1
    21    28    29   ar
    22    29    30   ar
    23    30    31   ar
    24    31    32   ar
    25    32    34    1
    26    34    35    1
    27    34    36    1
    28    34    37    1
    29    32    33   ar
    30     7     8    1
    31    13    14    1
    32    14    15    1
    33    21    22   ar
    34    22    18   ar
    35    15     9    1
    36     8     5    1
    37    33    28   ar
    38    10    16    1
    39     1     4    1
    40    24    27    1
@<TRIPOS>MOLECULE
*****
 37 40 0 0 0
SMALL
GASTEIGER

@<TRIPOS>ATOM
      1 N         141.4416  141.2859  162.0675 N.am    1  UNL1       -0.3018
      2 C         141.0611  139.8353  162.1008 C.2     1  UNL1        0.2426
      3 O         140.2553  139.2455  160.9815 O.2     1  UNL1       -0.2733
      4 H         141.9705  141.6730  162.8022 H       1  UNL1        0.1495
      5 N         140.4150  143.3638  159.2851 N.3     1  UNL1       -0.2711
      6 C         141.6129  142.5135  159.5886 C.3     1  UNL1        0.0933
      7 C         141.0164  142.1466  160.9151 C.3     1  UNL1        0.1035
      8 C         139.8186  142.9969  160.6116 C.3     1  UNL1        0.0933
      9 C         139.1393  145.9462  155.8277 C.3     1  UNL1        0.1248
     10 O         138.3729  145.8484  154.5420 O.3     1  UNL1       -0.3811
     11 C         139.9456  146.5358  156.9466 C.3     1  UNL1        0.0341
     12 C         140.3708  145.6750  158.0991 C.3     1  UNL1        0.0188
     13 C         139.9898  144.2246  158.1326 C.3     1  UNL1        0.0578
     14 C         139.1835  143.6350  157.0136 C.3     1  UNL1        0.0188
     15 C         138.7582  144.4958  155.8612 C.3     1  UNL1        0.0341
     16 H         138.3612  146.7148  154.1059 H       1  UNL1        0.2107
     17 C         138.6410  151.1924  155.4964 C.3     1  UNL1        0.1538
     18 N         139.0251  149.7740  155.1953 N.ar    1  UNL1       -0.2476
     19 C         139.8368  149.3105  154.0222 C.ar    1  UNL1        0.0965
     20 C         139.9784  147.8202  154.1163 C.ar    1  UNL1        0.0390
     21 C         139.2541  147.3626  155.3476 C.ar    1  UNL1        0.1041
     22 N         138.6650  148.5702  156.0145 N.ar    1  UNL1       -0.1713
     23 C         141.4863  138.9745  163.2533 C.3     1  UNL1        0.1759
     24 N         141.0303  139.3042  164.6437 N.am    1  UNL1       -0.2931
     25 C         141.7665  140.3325  165.4505 C.2     1  UNL1        0.2462
     26 O         142.9586  141.0311  164.8667 O.2     1  UNL1       -0.2701
     27 H         140.2479  138.8456  165.0269 H       1  UNL1        0.1502
     28 C         141.3106  140.6621  166.8409 C.ar    1  UNL1        0.0533
     29 C         140.0365  140.0745  167.3715 C.ar    1  UNL1        0.0045
     30 C         139.5806  140.4042  168.7621 C.ar    1  UNL1        0.0001
     31 C         140.3987  141.3214  169.6219 C.ar    1  UNL1        0.0039
     32 C         141.6727  141.9090  169.0913 C.ar    1  UNL1        0.0716
     33 C         142.1287  141.5794  167.7009 C.ar    1  UNL1        0.0084
     34 C         142.4908  142.8262  169.9512 C.3     1  UNL1        0.4186
     35 F         143.3090  143.7435  170.8110 F       1  UNL1       -0.1659
     36 F         141.3608  143.8124  169.9742 F       1  UNL1       -0.1659
     37 F         143.6208  141.8400  169.9281 F       1  UNL1       -0.1659
@<TRIPOS>BOND
     1    17    18    1
     2    18    19   ar
     3    19    20   ar
     4    20    21   ar
     5    21     9    1
     6     9    10    1
     7     9    11    1
     8    11    12    1
     9    12    13    1
    10    13     5    1
    11     5     6    1
    12     6     7    1
    13     7     1    1
    14     1     2   am
    15     2     3    2
    16     2    23    1
    17    23    24    1
    18    24    25   am
    19    25    26    2
    20    25    28    1
    21    28    29   ar
    22    29    30   ar
    23    30    31   ar
    24    31    32   ar
    25    32    34    1
    26    34    35    1
    27    34    36    1
    28    34    37    1
    29    32    33   ar
    30     7     8    1
    31    13    14    1
    32    14    15    1
    33    21    22   ar
    34    22    18   ar
    35    15     9    1
    36     8     5    1
    37    33    28   ar
    38    10    16    1
    39     1     4    1
    40    24    27    1
@<TRIPOS>MOLECULE
*****
 37 40 0 0 0
SMALL
GASTEIGER

@<TRIPOS>ATOM
      1 N         142.0459  142.1648  160.1785 N.am    1  UNL1       -0.3018
      2 C         140.6699  142.6612  159.8466 C.2     1  UNL1        0.2426
      3 O         140.3461  143.0943  158.4474 O.2     1  UNL1       -0.2733
      4 H         142.2584  141.8806  161.0968 H       1  UNL1        0.1495
      5 N         144.5861  142.0116  157.6021 N.3     1  UNL1       -0.2711
      6 C         143.6442  143.0668  158.1017 C.3     1  UNL1        0.0933
      7 C         143.0981  142.1013  159.1114 C.3     1  UNL1        0.1035
      8 C         144.0399  141.0461  158.6118 C.3     1  UNL1        0.0933
      9 C         147.7427  141.8212  154.4007 C.3     1  UNL1        0.1248
     10 O         147.9052  141.3972  152.9710 O.3     1  UNL1       -0.3811
     11 C         148.0835  142.3587  155.7589 C.3     1  UNL1        0.0341
     12 C         147.0313  142.4222  156.8260 C.3     1  UNL1        0.0188
     13 C         145.6383  141.9482  156.5349 C.3     1  UNL1        0.0578
     14 C         145.2975  141.4107  155.1766 C.3     1  UNL1        0.0188
     15 C         146.3497  141.3472  154.1095 C.3     1  UNL1        0.0341
     16 H         148.8202  141.5537  152.6894 H       1  UNL1        0.2107
     17 C         152.1875  144.0086  152.5729 C.3     1  UNL1        0.1538
     18 N         151.2353  143.1533  153.3551 N.ar    1  UNL1       -0.2476
     19 C         151.6103  142.1480  154.4032 C.ar    1  UNL1        0.0965
     20 C         150.3477  141.5266  154.9225 C.ar    1  UNL1        0.0390
     21 C         149.1922  142.1480  154.1952 C.ar    1  UNL1        0.1041
     22 N         149.7408  143.1534  153.2265 N.ar    1  UNL1       -0.1713
     23 C         139.6177  142.7247  160.9137 C.3     1  UNL1        0.1759
     24 N         139.8571  142.0716  162.2427 N.am    1  UNL1       -0.2931
     25 C         138.7686  142.0498  163.2746 C.2     1  UNL1        0.2462
     26 O         137.4407  142.6810  162.9775 O.2     1  UNL1       -0.2701
     27 H         140.7286  141.6573  162.4377 H       1  UNL1        0.1502
     28 C         139.0080  141.3967  164.6035 C.ar    1  UNL1        0.0533
     29 C         139.8827  142.0664  165.6216 C.ar    1  UNL1        0.0045
     30 C         140.1221  141.4133  166.9506 C.ar    1  UNL1        0.0001
     31 C         139.4868  140.0905  167.2615 C.ar    1  UNL1        0.0039
     32 C         138.6121  139.4208  166.2434 C.ar    1  UNL1        0.0716
     33 C         138.3727  140.0739  164.9145 C.ar    1  UNL1        0.0084
     34 C         137.9768  138.0981  166.5543 C.3     1  UNL1        0.4186
     35 F         137.3415  136.7753  166.8653 F       1  UNL1       -0.1659
     36 F         137.3382  138.6917  167.7750 F       1  UNL1       -0.1659
     37 F         138.6154  137.5045  165.3337 F       1  UNL1       -0.1659
@<TRIPOS>BOND
     1    17    18    1
     2    18    19   ar
     3    19    20   ar
     4    20    21   ar
     5    21     9    1
     6     9    10    1
     7     9    11    1
     8    11    12    1
     9    12    13    1
    10    13     5    1
    11     5     6    1
    12     6     7    1
    13     7     1    1
    14     1     2   am
    15     2     3    2
    16     2    23    1
    17    23    24    1
    18    24    25   am
    19    25    26    2
    20    25    28    1
    21    28    29   ar
    22    29    30   ar
    23    30    31   ar
    24    31    32   ar
    25    32    34    1
    26    34    35    1
    27    34    36    1
    28    34    37    1
    29    32    33   ar
    30     7     8    1
    31    13    14    1
    32    14    15    1
    33    21    22   ar
    34    22    18   ar
    35    15     9    1
    36     8     5    1
    37    33    28   ar
    38    10    16    1
    39     1     4    1
    40    24    27    1
@<TRIPOS>MOLECULE
*****
 37 40 0 0 0
SMALL
GASTEIGER

@<TRIPOS>ATOM
      1 N         139.5004  140.3492  162.3028 N.am    1  UNL1       -0.3018
      2 C         139.3153  138.8621  162.2373 C.2     1  UNL1        0.2426
      3 O         138.9766  138.2052  160.9319 O.2     1  UNL1       -0.2733
      4 H         139.7227  140.7803  163.1595 H       1  UNL1        0.1495
      5 N         139.1297  142.3536  159.3096 N.3     1  UNL1       -0.2711
      6 C         140.0383  141.2377  159.7331 C.3     1  UNL1        0.0933
      7 C         139.3469  141.1794  161.0630 C.3     1  UNL1        0.1035
      8 C         138.4383  142.2953  160.6395 C.3     1  UNL1        0.0933
      9 C         138.6690  144.8444  155.5903 C.3     1  UNL1        0.1248
     10 O         137.8375  144.9046  154.3434 O.3     1  UNL1       -0.3811
     11 C         139.7077  145.2051  156.6106 C.3     1  UNL1        0.0341
     12 C         139.8612  144.3749  157.8504 C.3     1  UNL1        0.0188
     13 C         138.9761  143.1839  158.0698 C.3     1  UNL1        0.0578
     14 C         137.9375  142.8231  157.0495 C.3     1  UNL1        0.0188
     15 C         137.7840  143.6534  155.8097 C.3     1  UNL1        0.0341
     16 H         138.1168  145.6613  153.8047 H       1  UNL1        0.2107
     17 C         139.6221  149.8544  154.2218 C.3     1  UNL1        0.1538
     18 N         139.7034  148.3591  154.3087 N.ar    1  UNL1       -0.2476
     19 C         140.6624  147.4832  153.5584 C.ar    1  UNL1        0.0965
     20 C         140.3917  146.0600  153.9471 C.ar    1  UNL1        0.0390
     21 C         139.2653  146.0563  154.9378 C.ar    1  UNL1        0.1041
     22 N         138.8399  147.4773  155.1612 N.ar    1  UNL1       -0.1713
     23 C         139.4688  138.0318  163.4770 C.3     1  UNL1        0.1759
     24 N         140.2672  138.5534  164.6348 N.am    1  UNL1       -0.2931
     25 C         139.5928  139.3485  165.7134 C.2     1  UNL1        0.2462
     26 O         138.1200  139.6218  165.6341 O.2     1  UNL1       -0.2701
     27 H         141.2338  138.3740  164.6868 H       1  UNL1        0.1502
     28 C         140.3911  139.8701  166.8712 C.ar    1  UNL1        0.0533
     29 C         141.8197  139.4484  167.0477 C.ar    1  UNL1        0.0045
     30 C         142.6181  139.9701  168.2056 C.ar    1  UNL1        0.0001
     31 C         141.9878  140.9134  169.1868 C.ar    1  UNL1        0.0039
     32 C         140.5592  141.3351  169.0102 C.ar    1  UNL1        0.0716
     33 C         139.7608  140.8135  167.8525 C.ar    1  UNL1        0.0084
     34 C         139.9289  142.2784  169.9914 C.3     1  UNL1        0.4186
     35 F         139.2986  143.2218  170.9727 F       1  UNL1       -0.1659
     36 F         141.0696  143.2345  169.8049 F       1  UNL1       -0.1659
     37 F         138.7883  141.3223  170.1780 F       1  UNL1       -0.1659
@<TRIPOS>BOND
     1    17    18    1
     2    18    19   ar
     3    19    20   ar
     4    20    21   ar
     5    21     9    1
     6     9    10    1
     7     9    11    1
     8    11    12    1
     9    12    13    1
    10    13     5    1
    11     5     6    1
    12     6     7    1
    13     7     1    1
    14     1     2   am
    15     2     3    2
    16     2    23    1
    17    23    24    1
    18    24    25   am
    19    25    26    2
    20    25    28    1
    21    28    29   ar
    22    29    30   ar
    23    30    31   ar
    24    31    32   ar
    25    32    34    1
    26    34    35    1
    27    34    36    1
    28    34    37    1
    29    32    33   ar
    30     7     8    1
    31    13    14    1
    32    14    15    1
    33    21    22   ar
    34    22    18   ar
    35    15     9    1
    36     8     5    1
    37    33    28   ar
    38    10    16    1
    39     1     4    1
    40    24    27    1
