@<TRIPOS>MOLECULE
*****
 33 36 0 0 0
SMALL
GASTEIGER

@<TRIPOS>ATOM
      1 C         142.6245  139.9496  160.5902 C.ar    1  UNL1        0.1480
      2 N         141.8261  141.1458  161.0165 N.ar    1  UNL1       -0.2195
      3 C         141.8620  141.2171  162.5144 C.ar    1  UNL1        0.1798
      4 C         141.2535  142.1823  163.4881 C.ar    1  UNL1        0.1666
      5 N         141.4656  141.9955  164.9612 N.ar    1  UNL1       -0.2260
      6 C         142.2862  140.8435  165.4606 C.ar    1  UNL1        0.1033
      7 C         142.8947  139.8783  164.4869 C.ar    1  UNL1        0.1005
      8 N         142.6826  140.0651  163.0138 N.ar    1  UNL1       -0.2888
      9 C         143.1539  139.2818  161.8246 C.ar    1  UNL1        0.0653
     10 C         144.0050  138.0472  161.8631 C.3     1  UNL1        0.0522
     11 C         142.4983  140.6567  166.9338 C.ar    1  UNL1        0.0576
     12 C         142.6759  139.2778  167.4970 C.ar    1  UNL1        0.1049
     13 N         142.8880  139.0909  168.9701 N.ar    1  UNL1       -0.2124
     14 C         142.9225  140.2829  169.8801 C.ar    1  UNL1        0.2137
     15 N         143.1346  140.0960  171.3531 N.pl3   1  UNL1       -0.3274
     16 N         142.7450  141.6618  169.3169 N.ar    1  UNL1       -0.2124
     17 C         142.5328  141.8486  167.8437 C.ar    1  UNL1        0.1049
     18 H         143.2512  139.1910  171.7228 H       1  UNL1        0.1452
     19 H         143.1573  140.8783  171.9504 H       1  UNL1        0.1452
     20 N         140.4329  143.3344  162.9886 N.pl3   1  UNL1       -0.2857
     21 C         141.0922  144.4585  162.2458 C.3     1  UNL1        0.1243
     22 C         140.2715  145.6106  161.7464 C.3     1  UNL1        0.1636
     23 O         138.7917  145.6385  161.9897 O.3     1  UNL1       -0.3501
     24 C         138.1324  144.5143  162.7326 C.3     1  UNL1        0.1636
     25 C         138.9531  143.3623  163.2320 C.3     1  UNL1        0.1243
     26 N         141.8270  138.6544  158.4839 N.am    1  UNL1       -0.2972
     27 C         142.8534  139.5002  159.1775 C.2     1  UNL1        0.2648
     28 O         144.1087  139.8966  158.4584 O.2     1  UNL1       -0.2684
     29 H         141.0031  138.3942  158.9558 H       1  UNL1        0.1499
     30 C         142.0560  138.2050  157.0712 C.3     1  UNL1        0.1219
     31 C         142.8773  136.9799  156.7977 C.3     1  UNL1        0.1634
     32 C         144.4181  138.3004  155.1754 C.3     1  UNL1        0.1742
     33 O         144.1591  137.0931  156.0269 O.3     1  UNL1       -0.3493
@<TRIPOS>BOND
     1    32    33    1
     2    33    31    1
     3    31    30    1
     4    30    26    1
     5    26    27   am
     6    27    28    2
     7    27     1    1
     8     1     2   ar
     9     2     3   ar
    10     3     4   ar
    11     4    20    1
    12    20    21    1
    13    21    22    1
    14    22    23    1
    15    23    24    1
    16    24    25    1
    17     4     5   ar
    18     5     6   ar
    19     6    11    1
    20    11    12   ar
    21    12    13   ar
    22    13    14   ar
    23    14    15    1
    24    14    16   ar
    25    16    17   ar
    26     6     7   ar
    27     7     8   ar
    28     8     9   ar
    29     9    10    1
    30     9     1   ar
    31     8     3   ar
    32    25    20    1
    33    17    11   ar
    34    26    29    1
    35    15    18    1
    36    15    19    1
@<TRIPOS>MOLECULE
*****
 33 36 0 0 0
SMALL
GASTEIGER

@<TRIPOS>ATOM
      1 C         141.4273  143.9649  161.4887 C.ar    1  UNL1        0.1480
      2 N         141.7746  142.5165  161.3114 N.ar    1  UNL1       -0.2195
      3 C         142.0170  141.9284  162.6699 C.ar    1  UNL1        0.1798
      4 C         142.3921  140.5451  163.1124 C.ar    1  UNL1        0.1666
      5 N         142.5697  140.2468  164.5716 N.ar    1  UNL1       -0.2260
      6 C         142.3723  141.3317  165.5884 C.ar    1  UNL1        0.1033
      7 C         141.9973  142.7150  165.1459 C.ar    1  UNL1        0.1005
      8 N         141.8196  143.0134  163.6867 N.ar    1  UNL1       -0.2888
      9 C         141.4551  144.2720  162.9566 C.ar    1  UNL1        0.0653
     10 C         141.1688  145.6039  163.5844 C.3     1  UNL1        0.0522
     11 C         142.5500  141.0334  167.0477 C.ar    1  UNL1        0.0576
     12 C         142.6361  139.6114  167.5174 C.ar    1  UNL1        0.1049
     13 N         142.8138  139.3131  168.9766 N.ar    1  UNL1       -0.2124
     14 C         142.9052  140.4367  169.9662 C.ar    1  UNL1        0.2137
     15 N         143.0829  140.1384  171.4254 N.pl3   1  UNL1       -0.3274
     16 N         142.8191  141.8587  169.4965 N.ar    1  UNL1       -0.2124
     17 C         142.6414  142.1570  168.0372 C.ar    1  UNL1        0.1049
     18 H         143.1394  139.2051  171.7337 H       1  UNL1        0.1452
     19 H         143.1429  140.8758  172.0749 H       1  UNL1        0.1452
     20 N         142.5895  139.4601  162.0955 N.pl3   1  UNL1       -0.2857
     21 C         143.8711  138.6813  162.0690 C.3     1  UNL1        0.1243
     22 C         144.0686  137.5963  161.0522 C.3     1  UNL1        0.1636
     23 O         142.9843  137.2902  160.0619 O.3     1  UNL1       -0.3501
     24 C         141.7026  138.0692  160.0884 C.3     1  UNL1        0.1636
     25 C         141.5052  139.1541  161.1052 C.3     1  UNL1        0.1243
     26 N         141.9874  145.0120  159.1778 N.am    1  UNL1       -0.2972
     27 C         141.1082  144.9359  160.3907 C.2     1  UNL1        0.2648
     28 O         139.9098  145.8307  160.5057 O.2     1  UNL1       -0.2684
     29 H         142.7739  144.4247  159.1023 H       1  UNL1        0.1499
     30 C         141.6682  145.9829  158.0799 C.3     1  UNL1        0.1219
     31 C         140.4497  145.7791  157.2292 C.3     1  UNL1        0.1634
     32 C         139.1779  147.3010  155.5511 C.3     1  UNL1        0.1742
     33 O         139.5208  146.9263  156.9624 O.3     1  UNL1       -0.3493
@<TRIPOS>BOND
     1    32    33    1
     2    33    31    1
     3    31    30    1
     4    30    26    1
     5    26    27   am
     6    27    28    2
     7    27     1    1
     8     1     2   ar
     9     2     3   ar
    10     3     4   ar
    11     4    20    1
    12    20    21    1
    13    21    22    1
    14    22    23    1
    15    23    24    1
    16    24    25    1
    17     4     5   ar
    18     5     6   ar
    19     6    11    1
    20    11    12   ar
    21    12    13   ar
    22    13    14   ar
    23    14    15    1
    24    14    16   ar
    25    16    17   ar
    26     6     7   ar
    27     7     8   ar
    28     8     9   ar
    29     9    10    1
    30     9     1   ar
    31     8     3   ar
    32    25    20    1
    33    17    11   ar
    34    26    29    1
    35    15    18    1
    36    15    19    1
@<TRIPOS>MOLECULE
*****
 33 36 0 0 0
SMALL
GASTEIGER

@<TRIPOS>ATOM
      1 C         140.8676  143.9716  160.8046 C.ar    1  UNL1        0.1480
      2 N         141.3484  142.5512  160.7689 N.ar    1  UNL1       -0.2195
      3 C         141.1095  141.9469  162.1209 C.ar    1  UNL1        0.1798
      4 C         141.3831  140.5785  162.6712 C.ar    1  UNL1        0.1666
      5 N         141.0282  140.2570  164.0927 N.ar    1  UNL1       -0.2260
      6 C         140.3998  141.3039  164.9639 C.ar    1  UNL1        0.1033
      7 C         140.1262  142.6722  164.4136 C.ar    1  UNL1        0.1005
      8 N         140.4811  142.9937  162.9921 N.ar    1  UNL1       -0.2888
      9 C         140.3315  144.2451  162.1787 C.ar    1  UNL1        0.0653
     10 C         139.7483  145.5422  162.6555 C.3     1  UNL1        0.0522
     11 C         140.0449  140.9824  166.3855 C.ar    1  UNL1        0.0576
     12 C         140.5224  141.8697  167.4967 C.ar    1  UNL1        0.1049
     13 N         140.1675  141.5483  168.9182 N.ar    1  UNL1       -0.2124
     14 C         139.3351  140.3396  169.2286 C.ar    1  UNL1        0.2137
     15 N         138.9803  140.0182  170.6501 N.pl3   1  UNL1       -0.3274
     16 N         138.8576  139.4524  168.1173 N.ar    1  UNL1       -0.2124
     17 C         139.2125  139.7738  166.6958 C.ar    1  UNL1        0.1049
     18 H         139.2937  140.6006  171.3794 H       1  UNL1        0.1452
     19 H         138.4340  139.2249  170.8537 H       1  UNL1        0.1452
     20 N         142.0116  139.5316  161.7999 N.pl3   1  UNL1       -0.2857
     21 C         141.3530  139.1331  160.5125 C.3     1  UNL1        0.1243
     22 C         141.9815  138.0862  159.6412 C.3     1  UNL1        0.1636
     23 O         143.2685  137.4379  160.0573 O.3     1  UNL1       -0.3501
     24 C         143.9271  137.8364  161.3448 C.3     1  UNL1        0.1636
     25 C         143.2986  138.8833  162.2160 C.3     1  UNL1        0.1243
     26 N         142.1343  145.0274  158.7969 N.am    1  UNL1       -0.2972
     27 C         140.9145  144.9472  159.6662 C.2     1  UNL1        0.2648
     28 O         139.7416  145.8427  159.3971 O.2     1  UNL1       -0.2684
     29 H         142.9041  144.4396  158.9735 H       1  UNL1        0.1499
     30 C         142.1811  146.0030  157.6586 C.3     1  UNL1        0.1219
     31 C         141.6338  145.6165  156.3165 C.3     1  UNL1        0.1634
     32 C         140.1292  147.2788  155.0040 C.3     1  UNL1        0.1742
     33 O         140.2708  146.0838  155.8995 O.3     1  UNL1       -0.3493
@<TRIPOS>BOND
     1    32    33    1
     2    33    31    1
     3    31    30    1
     4    30    26    1
     5    26    27   am
     6    27    28    2
     7    27     1    1
     8     1     2   ar
     9     2     3   ar
    10     3     4   ar
    11     4    20    1
    12    20    21    1
    13    21    22    1
    14    22    23    1
    15    23    24    1
    16    24    25    1
    17     4     5   ar
    18     5     6   ar
    19     6    11    1
    20    11    12   ar
    21    12    13   ar
    22    13    14   ar
    23    14    15    1
    24    14    16   ar
    25    16    17   ar
    26     6     7   ar
    27     7     8   ar
    28     8     9   ar
    29     9    10    1
    30     9     1   ar
    31     8     3   ar
    32    25    20    1
    33    17    11   ar
    34    26    29    1
    35    15    18    1
    36    15    19    1
@<TRIPOS>MOLECULE
*****
 33 36 0 0 0
SMALL
GASTEIGER

@<TRIPOS>ATOM
      1 C         142.3468  141.1665  166.2727 C.ar    1  UNL1        0.1480
      2 N         141.5743  142.0586  165.3468 N.ar    1  UNL1       -0.2195
      3 C         141.5954  141.4385  163.9810 C.ar    1  UNL1        0.1798
      4 C         141.0007  141.8704  162.6734 C.ar    1  UNL1        0.1666
      5 N         141.1916  141.0270  161.4477 N.ar    1  UNL1       -0.2260
      6 C         141.9771  139.7518  161.5297 C.ar    1  UNL1        0.1033
      7 C         142.5717  139.3199  162.8373 C.ar    1  UNL1        0.1005
      8 N         142.3808  140.1633  164.0630 N.ar    1  UNL1       -0.2888
      9 C         142.8453  139.9952  165.4793 C.ar    1  UNL1        0.0653
     10 C         143.6643  138.8557  166.0092 C.3     1  UNL1        0.0522
     11 C         142.1680  138.9084  160.3040 C.ar    1  UNL1        0.0576
     12 C         141.4733  139.2746  159.0260 C.ar    1  UNL1        0.1049
     13 N         141.6641  138.4312  157.8003 N.ar    1  UNL1       -0.2124
     14 C         142.5497  137.2216  157.8526 C.ar    1  UNL1        0.2137
     15 N         142.7406  136.3783  156.6269 N.pl3   1  UNL1       -0.3274
     16 N         143.2445  136.8555  159.1306 N.ar    1  UNL1       -0.2124
     17 C         143.0536  137.6989  160.3563 C.ar    1  UNL1        0.1049
     18 H         142.2846  136.6187  155.7881 H       1  UNL1        0.1452
     19 H         143.3218  135.5844  156.6613 H       1  UNL1        0.1452
     20 N         140.2152  143.1457  162.5915 N.pl3   1  UNL1       -0.2857
     21 C         140.8699  144.3990  162.0910 C.3     1  UNL1        0.1243
     22 C         140.0844  145.6743  162.0091 C.3     1  UNL1        0.1636
     23 O         138.6442  145.6962  162.4277 O.3     1  UNL1       -0.3501
     24 C         137.9894  144.4428  162.9281 C.3     1  UNL1        0.1636
     25 C         138.7750  143.1676  163.0100 C.3     1  UNL1        0.1243
     26 N         141.9640  140.4885  168.7514 N.am    1  UNL1       -0.2972
     27 C         142.5799  141.4041  167.7354 C.2     1  UNL1        0.2648
     28 O         143.4289  142.5572  168.1819 O.2     1  UNL1       -0.2684
     29 H         141.4068  139.7316  168.4583 H       1  UNL1        0.1499
     30 C         142.1972  140.7261  170.2140 C.3     1  UNL1        0.1219
     31 C         141.3168  141.6774  170.9690 C.3     1  UNL1        0.1634
     32 C         140.4597  143.8154  169.7673 C.3     1  UNL1        0.1742
     33 O         140.2245  142.4163  170.2544 O.3     1  UNL1       -0.3493
@<TRIPOS>BOND
     1    32    33    1
     2    33    31    1
     3    31    30    1
     4    30    26    1
     5    26    27   am
     6    27    28    2
     7    27     1    1
     8     1     2   ar
     9     2     3   ar
    10     3     4   ar
    11     4    20    1
    12    20    21    1
    13    21    22    1
    14    22    23    1
    15    23    24    1
    16    24    25    1
    17     4     5   ar
    18     5     6   ar
    19     6    11    1
    20    11    12   ar
    21    12    13   ar
    22    13    14   ar
    23    14    15    1
    24    14    16   ar
    25    16    17   ar
    26     6     7   ar
    27     7     8   ar
    28     8     9   ar
    29     9    10    1
    30     9     1   ar
    31     8     3   ar
    32    25    20    1
    33    17    11   ar
    34    26    29    1
    35    15    18    1
    36    15    19    1
@<TRIPOS>MOLECULE
*****
 33 36 0 0 0
SMALL
GASTEIGER

@<TRIPOS>ATOM
      1 C         140.9845  139.8000  165.2109 C.ar    1  UNL1        0.1480
      2 N         140.5696  141.0006  164.4132 N.ar    1  UNL1       -0.2195
      3 C         140.5427  140.6085  162.9655 C.ar    1  UNL1        0.1798
      4 C         140.2070  141.3789  161.7231 C.ar    1  UNL1        0.1666
      5 N         140.2696  140.7065  160.3837 N.ar    1  UNL1       -0.2260
      6 C         140.6678  139.2636  160.2869 C.ar    1  UNL1        0.1033
      7 C         141.0035  138.4932  161.5293 C.ar    1  UNL1        0.1005
      8 N         140.9410  139.1656  162.8687 N.ar    1  UNL1       -0.2888
      9 C         141.2140  138.6659  164.2564 C.ar    1  UNL1        0.0653
     10 C         141.6415  137.2761  164.6248 C.3     1  UNL1        0.0522
     11 C         140.7304  138.5911  158.9475 C.ar    1  UNL1        0.0576
     12 C         142.0322  138.0412  158.4445 C.ar    1  UNL1        0.1049
     13 N         142.0948  137.3687  157.1051 N.ar    1  UNL1       -0.2124
     14 C         140.8556  137.2461  156.2688 C.ar    1  UNL1        0.2137
     15 N         140.9183  136.5737  154.9294 N.pl3   1  UNL1       -0.3274
     16 N         139.5539  137.7960  156.7718 N.ar    1  UNL1       -0.2124
     17 C         139.4913  138.4685  158.1112 C.ar    1  UNL1        0.1049
     18 H         141.7727  136.2128  154.5993 H       1  UNL1        0.1452
     19 H         140.1050  136.4932  154.3805 H       1  UNL1        0.1452
     20 N         139.8088  142.8219  161.8200 N.pl3   1  UNL1       -0.2857
     21 C         140.5864  143.8662  161.0754 C.3     1  UNL1        0.1243
     22 C         140.1881  145.3092  161.1723 C.3     1  UNL1        0.1636
     23 O         139.0122  145.7077  162.0139 O.3     1  UNL1       -0.3501
     24 C         138.2345  144.6633  162.7586 C.3     1  UNL1        0.1636
     25 C         138.6328  143.2204  162.6617 C.3     1  UNL1        0.1243
     26 N         139.9969  140.1248  167.5920 N.am    1  UNL1       -0.2972
     27 C         141.1422  139.7434  166.7016 C.2     1  UNL1        0.2648
     28 O         142.4452  139.3054  167.3018 O.2     1  UNL1       -0.2684
     29 H         139.1417  140.4122  167.1980 H       1  UNL1        0.1499
     30 C         140.1546  140.0681  169.0826 C.3     1  UNL1        0.1219
     31 C         139.3626  140.9951  169.9564 C.3     1  UNL1        0.1634
     32 C         141.5021  141.7594  171.2164 C.3     1  UNL1        0.1742
     33 O         140.0087  141.6378  171.1478 O.3     1  UNL1       -0.3493
@<TRIPOS>BOND
     1    32    33    1
     2    33    31    1
     3    31    30    1
     4    30    26    1
     5    26    27   am
     6    27    28    2
     7    27     1    1
     8     1     2   ar
     9     2     3   ar
    10     3     4   ar
    11     4    20    1
    12    20    21    1
    13    21    22    1
    14    22    23    1
    15    23    24    1
    16    24    25    1
    17     4     5   ar
    18     5     6   ar
    19     6    11    1
    20    11    12   ar
    21    12    13   ar
    22    13    14   ar
    23    14    15    1
    24    14    16   ar
    25    16    17   ar
    26     6     7   ar
    27     7     8   ar
    28     8     9   ar
    29     9    10    1
    30     9     1   ar
    31     8     3   ar
    32    25    20    1
    33    17    11   ar
    34    26    29    1
    35    15    18    1
    36    15    19    1
@<TRIPOS>MOLECULE
*****
 33 36 0 0 0
SMALL
GASTEIGER

@<TRIPOS>ATOM
      1 C         142.1931  141.9466  165.2455 C.ar    1  UNL1        0.1480
      2 N         141.2282  141.1775  164.3927 N.ar    1  UNL1       -0.2195
      3 C         141.7927  141.1043  163.0048 C.ar    1  UNL1        0.1798
      4 C         141.2801  140.4720  161.7449 C.ar    1  UNL1        0.1666
      5 N         142.0812  140.5636  160.4801 N.ar    1  UNL1       -0.2260
      6 C         143.3949  141.2875  160.4752 C.ar    1  UNL1        0.1033
      7 C         143.9075  141.9198  161.7352 C.ar    1  UNL1        0.1005
      8 N         143.1064  141.8282  163.0000 N.ar    1  UNL1       -0.2888
      9 C         143.3539  142.3488  164.3848 C.ar    1  UNL1        0.0653
     10 C         144.5519  143.1337  164.8305 C.3     1  UNL1        0.0522
     11 C         144.1961  141.3791  159.2104 C.ar    1  UNL1        0.0576
     12 C         144.1614  140.2552  158.2176 C.ar    1  UNL1        0.1049
     13 N         144.9626  140.3468  156.9528 N.ar    1  UNL1       -0.2124
     14 C         145.7984  141.5623  156.6807 C.ar    1  UNL1        0.2137
     15 N         146.5996  141.6539  155.4159 N.pl3   1  UNL1       -0.3274
     16 N         145.8331  142.6862  157.6735 N.ar    1  UNL1       -0.2124
     17 C         145.0319  142.5946  158.9384 C.ar    1  UNL1        0.1049
     18 H         146.5768  140.9162  154.7643 H       1  UNL1        0.1452
     19 H         147.1481  142.4516  155.2374 H       1  UNL1        0.1452
     20 N         139.9663  139.7481  161.7498 N.pl3   1  UNL1       -0.2857
     21 C         139.8108  138.4816  162.5382 C.3     1  UNL1        0.1243
     22 C         138.4970  137.7576  162.5432 C.3     1  UNL1        0.1636
     23 O         137.3387  138.3003  161.7597 O.3     1  UNL1       -0.3501
     24 C         137.4943  139.5670  160.9712 C.3     1  UNL1        0.1636
     25 C         138.8080  140.2908  160.9663 C.3     1  UNL1        0.1243
     26 N         140.6731  142.6123  167.2447 N.am    1  UNL1       -0.2972
     27 C         142.0266  142.2589  166.7033 C.2     1  UNL1        0.2648
     28 O         143.2135  142.2175  167.6195 O.2     1  UNL1       -0.2684
     29 H         139.8941  142.6395  166.6433 H       1  UNL1        0.1499
     30 C         140.5066  142.9245  168.7023 C.3     1  UNL1        0.1219
     31 C         140.0269  141.8624  169.6468 C.3     1  UNL1        0.1634
     32 C         141.5464  139.7552  169.6293 C.3     1  UNL1        0.1742
     33 O         141.0156  140.9681  170.3343 O.3     1  UNL1       -0.3493
@<TRIPOS>BOND
     1    32    33    1
     2    33    31    1
     3    31    30    1
     4    30    26    1
     5    26    27   am
     6    27    28    2
     7    27     1    1
     8     1     2   ar
     9     2     3   ar
    10     3     4   ar
    11     4    20    1
    12    20    21    1
    13    21    22    1
    14    22    23    1
    15    23    24    1
    16    24    25    1
    17     4     5   ar
    18     5     6   ar
    19     6    11    1
    20    11    12   ar
    21    12    13   ar
    22    13    14   ar
    23    14    15    1
    24    14    16   ar
    25    16    17   ar
    26     6     7   ar
    27     7     8   ar
    28     8     9   ar
    29     9    10    1
    30     9     1   ar
    31     8     3   ar
    32    25    20    1
    33    17    11   ar
    34    26    29    1
    35    15    18    1
    36    15    19    1
@<TRIPOS>MOLECULE
*****
 33 36 0 0 0
SMALL
GASTEIGER

@<TRIPOS>ATOM
      1 C         140.5015  143.7244  160.5836 C.ar    1  UNL1        0.1480
      2 N         141.1189  142.3700  160.7696 N.ar    1  UNL1       -0.2195
      3 C         141.4216  142.1949  162.2283 C.ar    1  UNL1        0.1798
      4 C         142.0335  141.0618  162.9974 C.ar    1  UNL1        0.1666
      5 N         142.2151  141.1747  164.4820 N.ar    1  UNL1       -0.2260
      6 C         141.7847  142.4208  165.1976 C.ar    1  UNL1        0.1033
      7 C         141.1728  143.5539  164.4285 C.ar    1  UNL1        0.1005
      8 N         140.9912  143.4410  162.9438 N.ar    1  UNL1       -0.2888
      9 C         140.4226  144.3862  161.9274 C.ar    1  UNL1        0.0653
     10 C         139.8717  145.7533  162.2059 C.3     1  UNL1        0.0522
     11 C         141.9663  142.5337  166.6823 C.ar    1  UNL1        0.0576
     12 C         140.7724  142.7149  167.5722 C.ar    1  UNL1        0.1049
     13 N         140.9539  142.8279  169.0569 N.ar    1  UNL1       -0.2124
     14 C         142.3293  142.7596  169.6517 C.ar    1  UNL1        0.2137
     15 N         142.5108  142.8726  171.1364 N.pl3   1  UNL1       -0.3274
     16 N         143.5231  142.5784  168.7618 N.ar    1  UNL1       -0.2124
     17 C         143.3416  142.4654  167.2771 C.ar    1  UNL1        0.1049
     18 H         141.7272  142.9915  171.7204 H       1  UNL1        0.1452
     19 H         143.4134  142.8278  171.5268 H       1  UNL1        0.1452
     20 N         142.4639  139.8157  162.2818 N.pl3   1  UNL1       -0.2857
     21 C         141.4379  138.9171  161.6573 C.3     1  UNL1        0.1243
     22 C         141.8683  137.6710  160.9417 C.3     1  UNL1        0.1636
     23 O         143.3246  137.3235  160.8505 O.3     1  UNL1       -0.3501
     24 C         144.3506  138.2221  161.4750 C.3     1  UNL1        0.1636
     25 C         143.9202  139.4682  162.1906 C.3     1  UNL1        0.1243
     26 N         140.7990  145.4544  158.6683 N.am    1  UNL1       -0.2972
     27 C         140.0434  144.3134  159.2824 C.2     1  UNL1        0.2648
     28 O         138.8296  143.7614  158.5953 O.2     1  UNL1       -0.2684
     29 H         141.5956  145.8167  159.1193 H       1  UNL1        0.1499
     30 C         140.3408  146.0435  157.3671 C.3     1  UNL1        0.1219
     31 C         141.3254  146.2698  156.2583 C.3     1  UNL1        0.1634
     32 C         141.3318  145.2900  153.8521 C.3     1  UNL1        0.1742
     33 O         140.8542  146.3174  154.8351 O.3     1  UNL1       -0.3493
@<TRIPOS>BOND
     1    32    33    1
     2    33    31    1
     3    31    30    1
     4    30    26    1
     5    26    27   am
     6    27    28    2
     7    27     1    1
     8     1     2   ar
     9     2     3   ar
    10     3     4   ar
    11     4    20    1
    12    20    21    1
    13    21    22    1
    14    22    23    1
    15    23    24    1
    16    24    25    1
    17     4     5   ar
    18     5     6   ar
    19     6    11    1
    20    11    12   ar
    21    12    13   ar
    22    13    14   ar
    23    14    15    1
    24    14    16   ar
    25    16    17   ar
    26     6     7   ar
    27     7     8   ar
    28     8     9   ar
    29     9    10    1
    30     9     1   ar
    31     8     3   ar
    32    25    20    1
    33    17    11   ar
    34    26    29    1
    35    15    18    1
    36    15    19    1
@<TRIPOS>MOLECULE
*****
 33 36 0 0 0
SMALL
GASTEIGER

@<TRIPOS>ATOM
      1 C         142.9836  141.4748  165.0241 C.ar    1  UNL1        0.1480
      2 N         142.1619  142.3889  164.1643 N.ar    1  UNL1       -0.2195
      3 C         142.3442  141.9696  162.7356 C.ar    1  UNL1        0.1798
      4 C         141.7800  142.5046  161.4529 C.ar    1  UNL1        0.1666
      5 N         142.1502  141.8664  160.1469 N.ar    1  UNL1       -0.2260
      6 C         143.0846  140.6932  160.1237 C.ar    1  UNL1        0.1033
      7 C         143.6487  140.1582  161.4065 C.ar    1  UNL1        0.1005
      8 N         143.2785  140.7964  162.7125 N.ar    1  UNL1       -0.2888
      9 C         143.6737  140.4906  164.1268 C.ar    1  UNL1        0.0653
     10 C         144.5969  139.3932  164.5665 C.3     1  UNL1        0.0522
     11 C         143.4548  140.0550  158.8177 C.ar    1  UNL1        0.0576
     12 C         142.8649  138.7295  158.4368 C.ar    1  UNL1        0.1049
     13 N         143.2350  138.0912  157.1309 N.ar    1  UNL1       -0.2124
     14 C         144.1952  138.7784  156.2057 C.ar    1  UNL1        0.2137
     15 N         144.5654  138.1401  154.8998 N.pl3   1  UNL1       -0.3274
     16 N         144.7852  140.1039  156.5866 N.ar    1  UNL1       -0.2124
     17 C         144.4149  140.7422  157.8926 C.ar    1  UNL1        0.1049
     18 H         144.1782  137.2702  154.6498 H       1  UNL1        0.1452
     19 H         145.1956  138.5912  154.2926 H       1  UNL1        0.1452
     20 N         140.8457  143.6779  161.4761 N.pl3   1  UNL1       -0.2857
     21 C         139.7137  143.7158  162.4595 C.3     1  UNL1        0.1243
     22 C         138.7793  144.8891  162.4827 C.3     1  UNL1        0.1636
     23 O         138.9770  146.0244  161.5226 O.3     1  UNL1       -0.3501
     24 C         140.1090  145.9864  160.5391 C.3     1  UNL1        0.1636
     25 C         141.0433  144.8132  160.5159 C.3     1  UNL1        0.1243
     26 N         142.5792  140.4015  167.3553 N.am    1  UNL1       -0.2972
     27 C         143.0956  141.5344  166.5188 C.2     1  UNL1        0.2648
     28 O         143.7240  142.7269  167.1768 O.2     1  UNL1       -0.2684
     29 H         142.1667  139.6188  166.9234 H       1  UNL1        0.1499
     30 C         142.6912  140.4611  168.8499 C.3     1  UNL1        0.1219
     31 C         141.4551  140.4012  169.6976 C.3     1  UNL1        0.1634
     32 C         140.7803  142.8702  169.2522 C.3     1  UNL1        0.1742
     33 O         140.3947  141.4521  169.5528 O.3     1  UNL1       -0.3493
@<TRIPOS>BOND
     1    32    33    1
     2    33    31    1
     3    31    30    1
     4    30    26    1
     5    26    27   am
     6    27    28    2
     7    27     1    1
     8     1     2   ar
     9     2     3   ar
    10     3     4   ar
    11     4    20    1
    12    20    21    1
    13    21    22    1
    14    22    23    1
    15    23    24    1
    16    24    25    1
    17     4     5   ar
    18     5     6   ar
    19     6    11    1
    20    11    12   ar
    21    12    13   ar
    22    13    14   ar
    23    14    15    1
    24    14    16   ar
    25    16    17   ar
    26     6     7   ar
    27     7     8   ar
    28     8     9   ar
    29     9    10    1
    30     9     1   ar
    31     8     3   ar
    32    25    20    1
    33    17    11   ar
    34    26    29    1
    35    15    18    1
    36    15    19    1
@<TRIPOS>MOLECULE
*****
 33 36 0 0 0
SMALL
GASTEIGER

@<TRIPOS>ATOM
      1 C         141.9465  140.7244  166.3955 C.ar    1  UNL1        0.1480
      2 N         141.2221  141.6659  165.4797 N.ar    1  UNL1       -0.2195
      3 C         141.3207  141.1233  164.0847 C.ar    1  UNL1        0.1798
      4 C         140.7968  141.6270  162.7725 C.ar    1  UNL1        0.1666
      5 N         141.0582  140.8539  161.5140 N.ar    1  UNL1       -0.2260
      6 C         141.8434  139.5770  161.5677 C.ar    1  UNL1        0.1033
      7 C         142.3673  139.0733  162.8799 C.ar    1  UNL1        0.1005
      8 N         142.1060  139.8465  164.1384 N.ar    1  UNL1       -0.2888
      9 C         142.4927  139.5999  165.5665 C.ar    1  UNL1        0.0653
     10 C         143.2864  138.4336  166.0762 C.3     1  UNL1        0.0522
     11 C         142.1048  138.8038  160.3092 C.ar    1  UNL1        0.0576
     12 C         141.4718  139.2344  159.0192 C.ar    1  UNL1        0.1049
     13 N         141.7331  138.4612  157.7607 N.ar    1  UNL1       -0.2124
     14 C         142.6276  137.2574  157.7921 C.ar    1  UNL1        0.2137
     15 N         142.8890  136.4843  156.5336 N.pl3   1  UNL1       -0.3274
     16 N         143.2607  136.8269  159.0820 N.ar    1  UNL1       -0.2124
     17 C         142.9993  137.6001  160.3406 C.ar    1  UNL1        0.1049
     18 H         142.4734  136.7669  155.6870 H       1  UNL1        0.1452
     19 H         143.4760  135.6942  156.5542 H       1  UNL1        0.1452
     20 N         140.0115  142.9040  162.7189 N.pl3   1  UNL1       -0.2857
     21 C         138.5381  142.8907  162.9997 C.3     1  UNL1        0.1243
     22 C         137.7528  144.1676  162.9461 C.3     1  UNL1        0.1636
     23 O         138.4410  145.4578  162.6116 O.3     1  UNL1       -0.3501
     24 C         139.9144  145.4710  162.3308 C.3     1  UNL1        0.1636
     25 C         140.6996  144.1942  162.3844 C.3     1  UNL1        0.1243
     26 N         142.7831  142.0907  168.4409 N.am    1  UNL1       -0.2972
     27 C         142.0981  140.8799  167.8797 C.2     1  UNL1        0.2648
     28 O         141.5647  139.8247  168.8028 O.2     1  UNL1       -0.2684
     29 H         143.1332  142.7832  167.8351 H       1  UNL1        0.1499
     30 C         142.9346  142.2462  169.9250 C.3     1  UNL1        0.1219
     31 C         143.8496  143.2976  170.4795 C.3     1  UNL1        0.1634
     32 C         146.2572  144.1476  170.9600 C.3     1  UNL1        0.1742
     33 O         145.3317  143.1840  170.2781 O.3     1  UNL1       -0.3493
@<TRIPOS>BOND
     1    32    33    1
     2    33    31    1
     3    31    30    1
     4    30    26    1
     5    26    27   am
     6    27    28    2
     7    27     1    1
     8     1     2   ar
     9     2     3   ar
    10     3     4   ar
    11     4    20    1
    12    20    21    1
    13    21    22    1
    14    22    23    1
    15    23    24    1
    16    24    25    1
    17     4     5   ar
    18     5     6   ar
    19     6    11    1
    20    11    12   ar
    21    12    13   ar
    22    13    14   ar
    23    14    15    1
    24    14    16   ar
    25    16    17   ar
    26     6     7   ar
    27     7     8   ar
    28     8     9   ar
    29     9    10    1
    30     9     1   ar
    31     8     3   ar
    32    25    20    1
    33    17    11   ar
    34    26    29    1
    35    15    18    1
    36    15    19    1
