@<TRIPOS>MOLECULE
*****
 28 31 0 0 0
SMALL
GASTEIGER

@<TRIPOS>ATOM
      1 O         143.3738  142.2565  167.8740 O.2     1  UNL1       -0.2905
      2 P         142.3722  141.6094  166.9639 P.3     1  UNL1        0.2235
      3 C         141.3657  141.6030  168.0761 C.ar    1  UNL1        0.0496
      4 C         140.6596  140.3310  168.4413 C.ar    1  UNL1        0.0046
      5 C         139.6531  140.3246  169.5535 C.ar    1  UNL1        0.0002
      6 C         139.3528  141.5902  170.3005 C.ar    1  UNL1        0.0000
      7 C         140.0589  142.8621  169.9353 C.ar    1  UNL1        0.0002
      8 C         141.0654  142.8686  168.8231 C.ar    1  UNL1        0.0046
      9 C         143.3787  141.6159  165.8518 C.ar    1  UNL1        0.0496
     10 C         143.6943  140.3460  165.1184 C.ar    1  UNL1        0.0046
     11 C         144.7007  140.3524  164.0063 C.ar    1  UNL1        0.0002
     12 C         145.3917  141.6287  163.6274 C.ar    1  UNL1        0.0000
     13 C         145.0761  142.8986  164.3607 C.ar    1  UNL1        0.0002
     14 C         144.0697  142.8922  165.4729 C.ar    1  UNL1        0.0046
     15 N         141.3707  140.9624  166.0538 N.pl3   1  UNL1       -0.2857
     16 H         141.4441  140.0035  165.8434 H       1  UNL1        0.1541
     17 C         140.2572  141.7765  165.4643 C.ar    1  UNL1        0.0699
     18 C         140.4578  143.2386  165.1961 C.ar    1  UNL1        0.0458
     19 C         139.3444  144.0526  164.6066 C.ar    1  UNL1        0.1415
     20 F         139.5449  145.5148  164.3383 F       1  UNL1       -0.2041
     21 C         138.0303  143.4045  164.2853 C.ar    1  UNL1        0.0313
     22 C         137.8297  141.9424  164.5536 C.ar    1  UNL1        0.0227
     23 C         138.9431  141.1284  165.1431 C.ar    1  UNL1        0.0963
     24 N         138.7425  139.6663  165.4114 N.ar    1  UNL1       -0.2269
     25 C         137.8685  139.0775  166.4788 C.ar    1  UNL1        0.1021
     26 C         137.9666  137.5836  166.3864 C.ar    1  UNL1        0.0431
     27 C         138.9013  137.2490  165.2619 C.ar    1  UNL1        0.1221
     28 N         139.3808  138.5362  164.6593 N.ar    1  UNL1       -0.1634
@<TRIPOS>BOND
     1     1     2    2
     2     2    15    1
     3    15    17    1
     4    17    18   ar
     5    18    19   ar
     6    19    20    1
     7    19    21   ar
     8    21    22   ar
     9    22    23   ar
    10    23    24    1
    11    24    25   ar
    12    25    26   ar
    13    26    27   ar
    14    27    28   ar
    15     2     3    1
    16     3     4   ar
    17     4     5   ar
    18     5     6   ar
    19     6     7   ar
    20     7     8   ar
    21     2     9    1
    22     9    10   ar
    23    10    11   ar
    24    11    12   ar
    25    12    13   ar
    26    13    14   ar
    27    23    17   ar
    28    28    24   ar
    29     8     3   ar
    30    14     9   ar
    31    15    16    1
@<TRIPOS>MOLECULE
*****
 28 31 0 0 0
SMALL
GASTEIGER

@<TRIPOS>ATOM
      1 O         143.3740  142.2582  167.8716 O.2     1  UNL1       -0.2905
      2 P         142.3732  141.6128  166.9594 P.3     1  UNL1        0.2235
      3 C         143.3825  141.6162  165.8497 C.ar    1  UNL1        0.0496
      4 C         144.0772  142.8906  165.4716 C.ar    1  UNL1        0.0046
      5 C         145.0865  142.8940  164.3620 C.ar    1  UNL1        0.0002
      6 C         145.4010  141.6228  163.6304 C.ar    1  UNL1        0.0000
      7 C         144.7063  140.3484  164.0085 C.ar    1  UNL1        0.0002
      8 C         143.6970  140.3450  165.1182 C.ar    1  UNL1        0.0046
      9 C         141.3639  141.6095  168.0691 C.ar    1  UNL1        0.0496
     10 C         140.6542  140.3394  168.4335 C.ar    1  UNL1        0.0046
     11 C         139.6449  140.3360  169.5432 C.ar    1  UNL1        0.0002
     12 C         139.3454  141.6029  170.2884 C.ar    1  UNL1        0.0000
     13 C         140.0552  142.8730  169.9239 C.ar    1  UNL1        0.0002
     14 C         141.0644  142.8764  168.8143 C.ar    1  UNL1        0.0046
     15 N         141.3725  140.9675  166.0472 N.pl3   1  UNL1       -0.2857
     16 H         141.4457  140.0088  165.8356 H       1  UNL1        0.1541
     17 C         140.2601  141.7829  165.4575 C.ar    1  UNL1        0.0699
     18 C         140.4633  143.2442  165.1869 C.ar    1  UNL1        0.0458
     19 C         139.3509  144.0595  164.5972 C.ar    1  UNL1        0.1415
     20 F         139.5541  145.5209  164.3266 F       1  UNL1       -0.2041
     21 C         138.0353  143.4136  164.2780 C.ar    1  UNL1        0.0313
     22 C         137.8321  141.9523  164.5485 C.ar    1  UNL1        0.0227
     23 C         138.9444  141.1370  165.1383 C.ar    1  UNL1        0.0963
     24 N         138.7412  139.6756  165.4089 N.ar    1  UNL1       -0.2269
     25 C         137.8690  139.0901  166.4796 C.ar    1  UNL1        0.1021
     26 C         137.9633  137.5958  166.3886 C.ar    1  UNL1        0.0431
     27 C         138.8938  137.2578  165.2617 C.ar    1  UNL1        0.1221
     28 N         139.3746  138.5431  164.6562 N.ar    1  UNL1       -0.1634
@<TRIPOS>BOND
     1     1     2    2
     2     2    15    1
     3    15    17    1
     4    17    18   ar
     5    18    19   ar
     6    19    20    1
     7    19    21   ar
     8    21    22   ar
     9    22    23   ar
    10    23    24    1
    11    24    25   ar
    12    25    26   ar
    13    26    27   ar
    14    27    28   ar
    15     2     3    1
    16     3     4   ar
    17     4     5   ar
    18     5     6   ar
    19     6     7   ar
    20     7     8   ar
    21     2     9    1
    22     9    10   ar
    23    10    11   ar
    24    11    12   ar
    25    12    13   ar
    26    13    14   ar
    27    23    17   ar
    28    28    24   ar
    29     8     3   ar
    30    14     9   ar
    31    15    16    1
@<TRIPOS>MOLECULE
*****
 28 31 0 0 0
SMALL
GASTEIGER

@<TRIPOS>ATOM
      1 O         140.0742  140.0041  168.6632 O.2     1  UNL1       -0.2905
      2 P         140.9460  140.5544  167.5737 P.3     1  UNL1        0.2235
      3 C         141.5951  141.4793  168.5602 C.ar    1  UNL1        0.0496
      4 C         140.7672  142.4884  169.2993 C.ar    1  UNL1        0.0046
      5 C         141.4163  143.4132  170.2859 C.ar    1  UNL1        0.0002
      6 C         142.8933  143.3291  170.5333 C.ar    1  UNL1        0.0000
      7 C         143.7213  142.3200  169.7942 C.ar    1  UNL1        0.0002
      8 C         143.0722  141.3951  168.8077 C.ar    1  UNL1        0.0046
      9 C         140.2970  139.6295  166.5871 C.ar    1  UNL1        0.0496
     10 C         138.8019  139.5208  166.5324 C.ar    1  UNL1        0.0046
     11 C         138.1528  138.5959  165.5458 C.ar    1  UNL1        0.0002
     12 C         138.9988  137.7798  164.6140 C.ar    1  UNL1        0.0000
     13 C         140.4938  137.8885  164.6688 C.ar    1  UNL1        0.0002
     14 C         141.1429  138.8134  165.6553 C.ar    1  UNL1        0.0046
     15 N         141.8179  141.1047  166.4842 N.pl3   1  UNL1       -0.2857
     16 H         142.6896  140.6886  166.2938 H       1  UNL1        0.1541
     17 C         141.3616  142.2891  165.6847 C.ar    1  UNL1        0.0699
     18 C         140.0634  142.9631  166.0169 C.ar    1  UNL1        0.0458
     19 C         139.6072  144.1474  165.2175 C.ar    1  UNL1        0.1415
     20 F         138.3089  144.8215  165.5497 F       1  UNL1       -0.2041
     21 C         140.4491  144.6578  164.0858 C.ar    1  UNL1        0.0313
     22 C         141.7473  143.9838  163.7536 C.ar    1  UNL1        0.0227
     23 C         142.2035  142.7995  164.5530 C.ar    1  UNL1        0.0963
     24 N         143.5018  142.1254  164.2208 N.ar    1  UNL1       -0.2269
     25 C         144.7241  142.7924  163.6631 C.ar    1  UNL1        0.1021
     26 C         145.7833  141.7452  163.4856 C.ar    1  UNL1        0.0431
     27 C         145.2156  140.4310  163.9336 C.ar    1  UNL1        0.1221
     28 N         143.8055  140.6660  164.3880 N.ar    1  UNL1       -0.1634
@<TRIPOS>BOND
     1     1     2    2
     2     2    15    1
     3    15    17    1
     4    17    18   ar
     5    18    19   ar
     6    19    20    1
     7    19    21   ar
     8    21    22   ar
     9    22    23   ar
    10    23    24    1
    11    24    25   ar
    12    25    26   ar
    13    26    27   ar
    14    27    28   ar
    15     2     3    1
    16     3     4   ar
    17     4     5   ar
    18     5     6   ar
    19     6     7   ar
    20     7     8   ar
    21     2     9    1
    22     9    10   ar
    23    10    11   ar
    24    11    12   ar
    25    12    13   ar
    26    13    14   ar
    27    23    17   ar
    28    28    24   ar
    29     8     3   ar
    30    14     9   ar
    31    15    16    1
@<TRIPOS>MOLECULE
*****
 28 31 0 0 0
SMALL
GASTEIGER

@<TRIPOS>ATOM
      1 O         140.0797  139.8524  168.3291 O.2     1  UNL1       -0.2905
      2 P         140.9561  140.5036  167.3006 P.3     1  UNL1        0.2235
      3 C         140.3971  139.5931  166.2477 C.ar    1  UNL1        0.0496
      4 C         138.9255  139.5965  165.9576 C.ar    1  UNL1        0.0046
      5 C         138.3665  138.6860  164.9048 C.ar    1  UNL1        0.0002
      6 C         139.2792  137.7721  164.1420 C.ar    1  UNL1        0.0000
      7 C         140.7508  137.7687  164.4321 C.ar    1  UNL1        0.0002
      8 C         141.3098  138.6792  165.4850 C.ar    1  UNL1        0.0046
      9 C         141.5151  141.4140  168.3535 C.ar    1  UNL1        0.0496
     10 C         142.9919  141.4408  168.6148 C.ar    1  UNL1        0.0046
     11 C         143.5509  142.3512  169.6677 C.ar    1  UNL1        0.0002
     12 C         142.6331  143.2350  170.4593 C.ar    1  UNL1        0.0000
     13 C         141.1563  143.2083  170.1979 C.ar    1  UNL1        0.0002
     14 C         140.5973  142.2978  169.1450 C.ar    1  UNL1        0.0046
     15 N         141.8326  141.1547  166.2722 N.pl3   1  UNL1       -0.2857
     16 H         142.7318  140.7960  166.0934 H       1  UNL1        0.1541
     17 C         141.3390  142.3526  165.5160 C.ar    1  UNL1        0.0699
     18 C         140.0715  143.0353  165.9371 C.ar    1  UNL1        0.0458
     19 C         139.5780  144.2330  165.1810 C.ar    1  UNL1        0.1415
     20 F         138.3104  144.9158  165.6021 F       1  UNL1       -0.2041
     21 C         140.3519  144.7481  164.0038 C.ar    1  UNL1        0.0313
     22 C         141.6194  144.0654  163.5827 C.ar    1  UNL1        0.0227
     23 C         142.1129  142.8676  164.3389 C.ar    1  UNL1        0.0963
     24 N         143.3805  142.1848  163.9178 N.ar    1  UNL1       -0.2269
     25 C         144.7528  142.7904  163.9259 C.ar    1  UNL1        0.1021
     26 C         145.7186  141.7564  163.4278 C.ar    1  UNL1        0.0431
     27 C         144.9432  140.5118  163.1119 C.ar    1  UNL1        0.1221
     28 N         143.4982  140.7766  163.4147 N.ar    1  UNL1       -0.1634
@<TRIPOS>BOND
     1     1     2    2
     2     2    15    1
     3    15    17    1
     4    17    18   ar
     5    18    19   ar
     6    19    20    1
     7    19    21   ar
     8    21    22   ar
     9    22    23   ar
    10    23    24    1
    11    24    25   ar
    12    25    26   ar
    13    26    27   ar
    14    27    28   ar
    15     2     3    1
    16     3     4   ar
    17     4     5   ar
    18     5     6   ar
    19     6     7   ar
    20     7     8   ar
    21     2     9    1
    22     9    10   ar
    23    10    11   ar
    24    11    12   ar
    25    12    13   ar
    26    13    14   ar
    27    23    17   ar
    28    28    24   ar
    29     8     3   ar
    30    14     9   ar
    31    15    16    1
@<TRIPOS>MOLECULE
*****
 28 31 0 0 0
SMALL
GASTEIGER

@<TRIPOS>ATOM
      1 O         139.8579  143.8051  165.8477 O.2     1  UNL1       -0.2905
      2 P         140.4728  142.4578  165.6097 P.3     1  UNL1        0.2235
      3 C         141.1481  142.5297  166.9472 C.ar    1  UNL1        0.0496
      4 C         142.6004  142.1769  167.0741 C.ar    1  UNL1        0.0046
      5 C         143.2756  142.2488  168.4115 C.ar    1  UNL1        0.0002
      6 C         142.4985  142.6735  169.6222 C.ar    1  UNL1        0.0000
      7 C         141.0462  143.0264  169.4953 C.ar    1  UNL1        0.0002
      8 C         140.3710  142.9545  168.1578 C.ar    1  UNL1        0.0046
      9 C         139.7976  142.3859  164.2722 C.ar    1  UNL1        0.0496
     10 C         140.5951  142.0523  163.0464 C.ar    1  UNL1        0.0046
     11 C         139.9198  141.9804  161.7089 C.ar    1  UNL1        0.0002
     12 C         138.4471  142.2420  161.5972 C.ar    1  UNL1        0.0000
     13 C         137.6496  142.5756  162.8230 C.ar    1  UNL1        0.0002
     14 C         138.3248  142.6475  164.1605 C.ar    1  UNL1        0.0046
     15 N         141.0877  141.1105  165.3717 N.pl3   1  UNL1       -0.2857
     16 H         142.0437  141.0383  165.1478 H       1  UNL1        0.1541
     17 C         140.2461  139.8731  165.4749 C.ar    1  UNL1        0.0699
     18 C         139.0530  139.8512  166.3837 C.ar    1  UNL1        0.0458
     19 C         138.2114  138.6139  166.4868 C.ar    1  UNL1        0.1415
     20 F         137.0182  138.5920  167.3957 F       1  UNL1       -0.2041
     21 C         138.5629  137.3985  165.6812 C.ar    1  UNL1        0.0313
     22 C         139.7560  137.4203  164.7724 C.ar    1  UNL1        0.0227
     23 C         140.5976  138.6576  164.6692 C.ar    1  UNL1        0.0963
     24 N         141.7908  138.6795  163.7604 N.ar    1  UNL1       -0.2269
     25 C         141.8860  138.0244  162.4144 C.ar    1  UNL1        0.1021
     26 C         143.2523  138.3004  161.8602 C.ar    1  UNL1        0.0431
     27 C         144.0014  139.1262  162.8637 C.ar    1  UNL1        0.1221
     28 N         143.0982  139.3605  164.0380 N.ar    1  UNL1       -0.1634
@<TRIPOS>BOND
     1     1     2    2
     2     2    15    1
     3    15    17    1
     4    17    18   ar
     5    18    19   ar
     6    19    20    1
     7    19    21   ar
     8    21    22   ar
     9    22    23   ar
    10    23    24    1
    11    24    25   ar
    12    25    26   ar
    13    26    27   ar
    14    27    28   ar
    15     2     3    1
    16     3     4   ar
    17     4     5   ar
    18     5     6   ar
    19     6     7   ar
    20     7     8   ar
    21     2     9    1
    22     9    10   ar
    23    10    11   ar
    24    11    12   ar
    25    12    13   ar
    26    13    14   ar
    27    23    17   ar
    28    28    24   ar
    29     8     3   ar
    30    14     9   ar
    31    15    16    1
@<TRIPOS>MOLECULE
*****
 28 31 0 0 0
SMALL
GASTEIGER

@<TRIPOS>ATOM
      1 O         138.6795  139.4696  167.8041 O.2     1  UNL1       -0.2905
      2 P         139.7273  140.3016  167.1260 P.3     1  UNL1        0.2235
      3 C         140.1585  140.8432  168.4567 C.ar    1  UNL1        0.0496
      4 C         140.3757  139.9106  169.6112 C.ar    1  UNL1        0.0046
      5 C         140.8069  140.4521  170.9419 C.ar    1  UNL1        0.0002
      6 C         141.0209  141.9262  171.1181 C.ar    1  UNL1        0.0000
      7 C         140.8037  142.8588  169.9636 C.ar    1  UNL1        0.0002
      8 C         140.3725  142.3173  168.6328 C.ar    1  UNL1        0.0046
      9 C         139.2961  139.7601  165.7952 C.ar    1  UNL1        0.0496
     10 C         139.3660  138.2859  165.5271 C.ar    1  UNL1        0.0046
     11 C         138.9348  137.7444  164.1964 C.ar    1  UNL1        0.0002
     12 C         138.4337  138.6770  163.1338 C.ar    1  UNL1        0.0000
     13 C         138.3638  140.1511  163.4020 C.ar    1  UNL1        0.0002
     14 C         138.7950  140.6927  164.7327 C.ar    1  UNL1        0.0046
     15 N         140.7752  141.1336  166.4478 N.pl3   1  UNL1       -0.2857
     16 H         140.6566  142.1079  166.3711 H       1  UNL1        0.1541
     17 C         142.0037  140.4810  165.8866 C.ar    1  UNL1        0.0699
     18 C         142.6318  139.3228  166.6036 C.ar    1  UNL1        0.0458
     19 C         143.8603  138.6703  166.0424 C.ar    1  UNL1        0.1415
     20 F         144.4884  137.5121  166.7593 F       1  UNL1       -0.2041
     21 C         144.4607  139.1760  164.7642 C.ar    1  UNL1        0.0313
     22 C         143.8326  140.3342  164.0472 C.ar    1  UNL1        0.0227
     23 C         142.6041  140.9867  164.6084 C.ar    1  UNL1        0.0963
     24 N         141.9760  142.1450  163.8915 N.ar    1  UNL1       -0.2269
     25 C         141.6878  142.2206  162.4214 C.ar    1  UNL1        0.1021
     26 C         141.0595  143.5533  162.1401 C.ar    1  UNL1        0.0431
     27 C         140.9594  144.3014  163.4364 C.ar    1  UNL1        0.1221
     28 N         141.5258  143.4310  164.5188 N.ar    1  UNL1       -0.1634
@<TRIPOS>BOND
     1     1     2    2
     2     2    15    1
     3    15    17    1
     4    17    18   ar
     5    18    19   ar
     6    19    20    1
     7    19    21   ar
     8    21    22   ar
     9    22    23   ar
    10    23    24    1
    11    24    25   ar
    12    25    26   ar
    13    26    27   ar
    14    27    28   ar
    15     2     3    1
    16     3     4   ar
    17     4     5   ar
    18     5     6   ar
    19     6     7   ar
    20     7     8   ar
    21     2     9    1
    22     9    10   ar
    23    10    11   ar
    24    11    12   ar
    25    12    13   ar
    26    13    14   ar
    27    23    17   ar
    28    28    24   ar
    29     8     3   ar
    30    14     9   ar
    31    15    16    1
@<TRIPOS>MOLECULE
*****
 28 31 0 0 0
SMALL
GASTEIGER

@<TRIPOS>ATOM
      1 O         138.5797  139.4192  167.3601 O.2     1  UNL1       -0.2905
      2 P         139.6161  140.2435  166.6556 P.3     1  UNL1        0.2235
      3 C         139.2180  139.6263  165.3477 C.ar    1  UNL1        0.0496
      4 C         138.6390  140.4817  164.2601 C.ar    1  UNL1        0.0046
      5 C         138.2408  139.8645  162.9523 C.ar    1  UNL1        0.0002
      6 C         138.4216  138.3919  162.7320 C.ar    1  UNL1        0.0000
      7 C         139.0006  137.5364  163.8196 C.ar    1  UNL1        0.0002
      8 C         139.3988  138.1536  165.1275 C.ar    1  UNL1        0.0046
      9 C         140.0143  140.8607  167.9635 C.ar    1  UNL1        0.0496
     10 C         140.3308  142.3251  168.0363 C.ar    1  UNL1        0.0046
     11 C         140.7289  142.9423  169.3441 C.ar    1  UNL1        0.0002
     12 C         140.8106  142.0951  170.5792 C.ar    1  UNL1        0.0000
     13 C         140.4942  140.6307  170.5065 C.ar    1  UNL1        0.0002
     14 C         140.0960  140.0135  169.1986 C.ar    1  UNL1        0.0046
     15 N         140.6526  141.0678  165.9511 N.pl3   1  UNL1       -0.2857
     16 H         140.5014  142.0297  165.8061 H       1  UNL1        0.1541
     17 C         141.9194  140.4264  165.4675 C.ar    1  UNL1        0.0699
     18 C         142.6083  139.3961  166.3122 C.ar    1  UNL1        0.0458
     19 C         143.8751  138.7547  165.8286 C.ar    1  UNL1        0.1415
     20 F         144.5641  137.7243  166.6734 F       1  UNL1       -0.2041
     21 C         144.4529  139.1438  164.5002 C.ar    1  UNL1        0.0313
     22 C         143.7640  140.1741  163.6554 C.ar    1  UNL1        0.0227
     23 C         142.4972  140.8154  164.1390 C.ar    1  UNL1        0.0963
     24 N         141.8083  141.8458  163.2942 N.ar    1  UNL1       -0.2269
     25 C         141.5190  141.7328  161.8267 C.ar    1  UNL1        0.1021
     26 C         140.8195  142.9873  161.3942 C.ar    1  UNL1        0.0431
     27 C         140.6765  143.8757  162.5944 C.ar    1  UNL1        0.1221
     28 N         141.2876  143.1702  163.7686 N.ar    1  UNL1       -0.1634
@<TRIPOS>BOND
     1     1     2    2
     2     2    15    1
     3    15    17    1
     4    17    18   ar
     5    18    19   ar
     6    19    20    1
     7    19    21   ar
     8    21    22   ar
     9    22    23   ar
    10    23    24    1
    11    24    25   ar
    12    25    26   ar
    13    26    27   ar
    14    27    28   ar
    15     2     3    1
    16     3     4   ar
    17     4     5   ar
    18     5     6   ar
    19     6     7   ar
    20     7     8   ar
    21     2     9    1
    22     9    10   ar
    23    10    11   ar
    24    11    12   ar
    25    12    13   ar
    26    13    14   ar
    27    23    17   ar
    28    28    24   ar
    29     8     3   ar
    30    14     9   ar
    31    15    16    1
@<TRIPOS>MOLECULE
*****
 28 31 0 0 0
SMALL
GASTEIGER

@<TRIPOS>ATOM
      1 O         139.7654  141.1086  166.8012 O.2     1  UNL1       -0.2905
      2 P         140.5113  141.2210  165.5047 P.3     1  UNL1        0.2235
      3 C         139.5222  142.2412  165.0241 C.ar    1  UNL1        0.0496
      4 C         139.5350  143.6268  165.5984 C.ar    1  UNL1        0.0046
      5 C         138.5459  144.6470  165.1178 C.ar    1  UNL1        0.0002
      6 C         137.5441  144.2816  164.0629 C.ar    1  UNL1        0.0000
      7 C         137.5314  142.8960  163.4886 C.ar    1  UNL1        0.0002
      8 C         138.5204  141.8758  163.9692 C.ar    1  UNL1        0.0046
      9 C         141.5003  140.2007  165.9852 C.ar    1  UNL1        0.0496
     10 C         142.0402  139.1736  165.0347 C.ar    1  UNL1        0.0046
     11 C         143.0292  138.1534  165.5153 C.ar    1  UNL1        0.0002
     12 C         143.4784  138.1603  166.9464 C.ar    1  UNL1        0.0000
     13 C         142.9385  139.1874  167.8969 C.ar    1  UNL1        0.0002
     14 C         141.9495  140.2076  167.4164 C.ar    1  UNL1        0.0046
     15 N         141.2572  141.3333  164.2081 N.pl3   1  UNL1       -0.2857
     16 H         141.1631  140.6319  163.5237 H       1  UNL1        0.1541
     17 C         142.1464  142.5144  163.9544 C.ar    1  UNL1        0.0699
     18 C         143.1613  142.9232  164.9804 C.ar    1  UNL1        0.0458
     19 C         144.0505  144.1042  164.7266 C.ar    1  UNL1        0.1415
     20 F         145.0655  144.5131  165.7526 F       1  UNL1       -0.2041
     21 C         143.9248  144.8765  163.4468 C.ar    1  UNL1        0.0313
     22 C         142.9099  144.4676  162.4208 C.ar    1  UNL1        0.0227
     23 C         142.0207  143.2866  162.6746 C.ar    1  UNL1        0.0963
     24 N         141.0057  142.8777  161.6485 N.ar    1  UNL1       -0.2269
     25 C         140.0435  143.7904  160.9476 C.ar    1  UNL1        0.1021
     26 C         139.2179  142.9611  160.0092 C.ar    1  UNL1        0.0431
     27 C         139.6698  141.5359  160.1301 C.ar    1  UNL1        0.1221
     28 N         140.7747  141.4844  161.1433 N.ar    1  UNL1       -0.1634
@<TRIPOS>BOND
     1     1     2    2
     2     2    15    1
     3    15    17    1
     4    17    18   ar
     5    18    19   ar
     6    19    20    1
     7    19    21   ar
     8    21    22   ar
     9    22    23   ar
    10    23    24    1
    11    24    25   ar
    12    25    26   ar
    13    26    27   ar
    14    27    28   ar
    15     2     3    1
    16     3     4   ar
    17     4     5   ar
    18     5     6   ar
    19     6     7   ar
    20     7     8   ar
    21     2     9    1
    22     9    10   ar
    23    10    11   ar
    24    11    12   ar
    25    12    13   ar
    26    13    14   ar
    27    23    17   ar
    28    28    24   ar
    29     8     3   ar
    30    14     9   ar
    31    15    16    1
@<TRIPOS>MOLECULE
*****
 28 31 0 0 0
SMALL
GASTEIGER

@<TRIPOS>ATOM
      1 O         139.9260  142.9954  168.0560 O.2     1  UNL1       -0.2905
      2 P         140.5321  142.0402  167.0709 P.3     1  UNL1        0.2235
      3 C         139.6716  142.6144  165.9847 C.ar    1  UNL1        0.0496
      4 C         138.8156  141.7096  165.1489 C.ar    1  UNL1        0.0046
      5 C         137.9551  142.2838  164.0627 C.ar    1  UNL1        0.0002
      6 C         137.9505  143.7627  163.8123 C.ar    1  UNL1        0.0000
      7 C         138.8065  144.6674  164.6481 C.ar    1  UNL1        0.0002
      8 C         139.6670  144.0933  165.7343 C.ar    1  UNL1        0.0046
      9 C         141.3927  141.4661  168.1571 C.ar    1  UNL1        0.0496
     10 C         142.2307  142.3732  169.0084 C.ar    1  UNL1        0.0046
     11 C         143.0912  141.7991  170.0946 C.ar    1  UNL1        0.0002
     12 C         143.1138  140.3178  170.3295 C.ar    1  UNL1        0.0000
     13 C         142.2757  139.4106  169.4782 C.ar    1  UNL1        0.0002
     14 C         141.4152  139.9848  168.3920 C.ar    1  UNL1        0.0046
     15 N         141.1382  141.0851  166.0858 N.pl3   1  UNL1       -0.2857
     16 H         140.6740  140.2456  165.8646 H       1  UNL1        0.1541
     17 C         142.4517  141.4090  165.4378 C.ar    1  UNL1        0.0699
     18 C         143.1645  142.6829  165.7832 C.ar    1  UNL1        0.0458
     19 C         144.4779  143.0068  165.1352 C.ar    1  UNL1        0.1415
     20 F         145.1907  144.2807  165.4806 F       1  UNL1       -0.2041
     21 C         145.0786  142.0568  164.1419 C.ar    1  UNL1        0.0313
     22 C         144.3659  140.7830  163.7965 C.ar    1  UNL1        0.0227
     23 C         143.0524  140.4591  164.4445 C.ar    1  UNL1        0.0963
     24 N         142.3396  139.1852  164.0991 N.ar    1  UNL1       -0.2269
     25 C         141.9908  138.7168  162.7175 C.ar    1  UNL1        0.1021
     26 C         141.2861  137.3982  162.8393 C.ar    1  UNL1        0.0431
     27 C         141.1995  137.0517  164.2962 C.ar    1  UNL1        0.1221
     28 N         141.8506  138.1562  165.0748 N.ar    1  UNL1       -0.1634
@<TRIPOS>BOND
     1     1     2    2
     2     2    15    1
     3    15    17    1
     4    17    18   ar
     5    18    19   ar
     6    19    20    1
     7    19    21   ar
     8    21    22   ar
     9    22    23   ar
    10    23    24    1
    11    24    25   ar
    12    25    26   ar
    13    26    27   ar
    14    27    28   ar
    15     2     3    1
    16     3     4   ar
    17     4     5   ar
    18     5     6   ar
    19     6     7   ar
    20     7     8   ar
    21     2     9    1
    22     9    10   ar
    23    10    11   ar
    24    11    12   ar
    25    12    13   ar
    26    13    14   ar
    27    23    17   ar
    28    28    24   ar
    29     8     3   ar
    30    14     9   ar
    31    15    16    1
