@<TRIPOS>MOLECULE
*****
 44 47 0 0 0
SMALL
GASTEIGER

@<TRIPOS>ATOM
      1 C         140.6975  143.9854  160.9949 C.3     1  UNL1        0.0925
      2 C         141.7924  144.6435  160.2088 C.3     1  UNL1        0.0123
      3 C         142.3473  143.6319  159.2504 C.3     1  UNL1        0.0165
      4 C         141.5954  142.3486  159.4441 C.3     1  UNL1        0.0581
      5 C         140.5757  142.5671  160.5223 C.3     1  UNL1        0.0268
      6 N         141.8232  141.0710  158.6917 N.3     1  UNL1       -0.2739
      7 C         142.8536  141.0151  157.6032 C.3     1  UNL1        0.0724
      8 C         143.0814  139.7376  156.8509 C.3     1  UNL1        0.0217
      9 C         142.2786  138.5158  157.1871 C.3     1  UNL1        0.0251
     10 C         141.2481  138.5718  158.2757 C.3     1  UNL1        0.0217
     11 C         141.0203  139.8493  159.0280 C.3     1  UNL1        0.0724
     12 C         142.5063  137.2383  156.4348 C.ar    1  UNL1       -0.0224
     13 C         142.4232  137.2249  154.9371 C.ar    1  UNL1       -0.0043
     14 C         142.6510  135.9473  154.1848 C.ar    1  UNL1       -0.0003
     15 C         142.9618  134.6832  154.9301 C.ar    1  UNL1        0.0011
     16 C         143.0449  134.6967  156.4278 C.ar    1  UNL1        0.0137
     17 C         142.8172  135.9742  157.1801 C.ar    1  UNL1       -0.0031
     18 C         143.3558  133.4326  157.1731 C.2     1  UNL1        0.0729
     19 O         142.5125  132.2104  156.9611 O.co2   1  UNL1       -0.5446
     20 O         144.5099  133.3908  158.1304 O.co2   1  UNL1       -0.5446
     21 C         139.9115  145.8758  160.4394 C.3     1  UNL1        0.0298
     22 C         140.5854  145.3248  161.6609 C.3     1  UNL1        0.0961
     23 C         141.1495  145.1353  162.8726 C.3     1  UNL1        0.0298
     24 O         140.4733  146.6642  162.3269 O.3     1  UNL1       -0.3863
     25 H         140.8600  146.6169  163.2153 H       1  UNL1        0.2102
     26 C         139.5791  143.6073  161.9202 C.2     1  UNL1        0.2240
     27 O         138.4897  144.5932  162.2221 O.2     1  UNL1       -0.2750
     28 N         139.5502  142.2433  162.5436 N.am    1  UNL1       -0.3004
     29 H         140.2652  141.5962  162.3454 H       1  UNL1        0.1497
     30 C         138.4318  141.8651  163.4689 C.3     1  UNL1        0.1163
     31 C         138.7363  141.2287  164.7927 C.ar    1  UNL1       -0.0027
     32 C         138.1360  139.8991  165.1414 C.ar    1  UNL1        0.0012
     33 C         138.4405  139.2627  166.4651 C.ar    1  UNL1        0.0711
     34 C         139.3453  139.9560  167.4402 C.ar    1  UNL1        0.0077
     35 C         139.9456  141.2857  167.0915 C.ar    1  UNL1        0.0711
     36 C         139.6411  141.9220  165.7677 C.ar    1  UNL1        0.0012
     37 C         137.8402  137.9330  166.8139 C.3     1  UNL1        0.4186
     38 F         137.2400  136.6033  167.1626 F       1  UNL1       -0.1659
     39 F         138.5606  137.3047  165.6580 F       1  UNL1       -0.1659
     40 F         137.1199  138.5613  167.9699 F       1  UNL1       -0.1659
     41 C         140.8504  141.9790  168.0665 C.3     1  UNL1        0.4186
     42 F         141.7552  142.6723  169.0415 F       1  UNL1       -0.1659
     43 F         140.1853  143.2866  167.7539 F       1  UNL1       -0.1659
     44 F         141.5156  140.6714  168.3790 F       1  UNL1       -0.1659
@<TRIPOS>UNITY_ATOM_ATTR
19 1
charge -1
@<TRIPOS>BOND
     1    21    22    1
     2    22    23    1
     3    22    24    1
     4     1    22    1
     5     1    26    1
     6    26    27    2
     7    26    28   am
     8    28    30    1
     9    30    31    1
    10    31    32   ar
    11    32    33   ar
    12    33    37    1
    13    37    38    1
    14    37    39    1
    15    37    40    1
    16    33    34   ar
    17    34    35   ar
    18    35    41    1
    19    41    42    1
    20    41    43    1
    21    41    44    1
    22    35    36   ar
    23     1     2    1
    24     2     3    1
    25     3     4    1
    26     4     6    1
    27     6     7    1
    28     7     8    1
    29     8     9    1
    30     9    12    1
    31    12    13   ar
    32    13    14   ar
    33    14    15   ar
    34    15    16   ar
    35    16    18    1
    36    18    19   ar
    37    18    20   ar
    38    16    17   ar
    39     9    10    1
    40    10    11    1
    41     4     5    1
    42     5     1    1
    43    36    31   ar
    44    11     6    1
    45    17    12   ar
    46    24    25    1
    47    28    29    1
@<TRIPOS>MOLECULE
*****
 44 47 0 0 0
SMALL
GASTEIGER

@<TRIPOS>ATOM
      1 C         140.8847  143.0678  160.1854 C.3     1  UNL1        0.0925
      2 C         142.0404  143.5663  159.3695 C.3     1  UNL1        0.0123
      3 C         142.5522  142.4233  158.5439 C.3     1  UNL1        0.0165
      4 C         141.7127  141.2184  158.8495 C.3     1  UNL1        0.0581
      5 C         140.6821  141.6167  159.8640 C.3     1  UNL1        0.0268
      6 N         141.8753  139.8546  158.2465 N.3     1  UNL1       -0.2739
      7 C         141.4310  139.6001  156.8366 C.3     1  UNL1        0.0724
      8 C         141.5936  138.2363  156.2336 C.3     1  UNL1        0.0217
      9 C         142.2004  137.1269  157.0405 C.3     1  UNL1        0.0251
     10 C         142.6447  137.3815  158.4505 C.3     1  UNL1        0.0217
     11 C         142.4821  138.7453  159.0535 C.3     1  UNL1        0.0724
     12 C         142.3630  135.7631  156.4375 C.ar    1  UNL1       -0.0224
     13 C         141.4468  135.3155  155.3374 C.ar    1  UNL1       -0.0043
     14 C         141.6094  133.9517  154.7344 C.ar    1  UNL1       -0.0003
     15 C         142.6881  133.0356  155.2315 C.ar    1  UNL1        0.0011
     16 C         143.6043  133.4833  156.3316 C.ar    1  UNL1        0.0137
     17 C         143.4418  134.8471  156.9346 C.ar    1  UNL1       -0.0031
     18 C         144.6830  132.5671  156.8287 C.2     1  UNL1        0.0729
     19 O         145.2075  131.4762  155.9429 O.co2   1  UNL1       -0.5446
     20 O         145.2372  132.7420  158.2116 O.co2   1  UNL1       -0.5446
     21 C         140.2744  144.9377  159.3911 C.3     1  UNL1        0.0298
     22 C         140.8438  144.4762  160.6999 C.3     1  UNL1        0.0961
     23 C         141.3321  144.3800  161.9547 C.3     1  UNL1        0.0298
     24 O         140.8029  145.8847  161.2143 O.3     1  UNL1       -0.3863
     25 H         141.1412  145.9070  162.1231 H       1  UNL1        0.2102
     26 C         139.7204  142.8637  161.1088 C.2     1  UNL1        0.2240
     27 O         138.4833  143.6973  160.9516 O.2     1  UNL1       -0.2750
     28 N         139.7931  141.8260  162.1896 N.am    1  UNL1       -0.3004
     29 H         140.6051  141.2789  162.2928 H       1  UNL1        0.1497
     30 C         138.6289  141.6219  163.1130 C.3     1  UNL1        0.1163
     31 C         138.8526  141.0795  164.4935 C.ar    1  UNL1       -0.0027
     32 C         139.6532  141.8669  165.4880 C.ar    1  UNL1        0.0012
     33 C         139.8769  141.3245  166.8685 C.ar    1  UNL1        0.0711
     34 C         139.3000  139.9948  167.2545 C.ar    1  UNL1        0.0077
     35 C         138.4993  139.2074  166.2600 C.ar    1  UNL1        0.0711
     36 C         138.2757  139.7498  164.8795 C.ar    1  UNL1        0.0012
     37 C         140.6776  142.1119  167.8631 C.3     1  UNL1        0.4186
     38 F         141.4782  142.8992  168.8575 F       1  UNL1       -0.1659
     39 F         140.2728  143.3850  167.1809 F       1  UNL1       -0.1659
     40 F         141.0823  140.8387  168.5452 F       1  UNL1       -0.1659
     41 C         137.9224  137.8777  166.6460 C.3     1  UNL1        0.4186
     42 F         137.3455  136.5480  167.0320 F       1  UNL1       -0.1659
     43 F         137.1496  138.5339  167.7515 F       1  UNL1       -0.1659
     44 F         138.6952  137.2215  165.5405 F       1  UNL1       -0.1659
@<TRIPOS>UNITY_ATOM_ATTR
19 1
charge -1
@<TRIPOS>BOND
     1    21    22    1
     2    22    23    1
     3    22    24    1
     4     1    22    1
     5     1    26    1
     6    26    27    2
     7    26    28   am
     8    28    30    1
     9    30    31    1
    10    31    32   ar
    11    32    33   ar
    12    33    37    1
    13    37    38    1
    14    37    39    1
    15    37    40    1
    16    33    34   ar
    17    34    35   ar
    18    35    41    1
    19    41    42    1
    20    41    43    1
    21    41    44    1
    22    35    36   ar
    23     1     2    1
    24     2     3    1
    25     3     4    1
    26     4     6    1
    27     6     7    1
    28     7     8    1
    29     8     9    1
    30     9    12    1
    31    12    13   ar
    32    13    14   ar
    33    14    15   ar
    34    15    16   ar
    35    16    18    1
    36    18    19   ar
    37    18    20   ar
    38    16    17   ar
    39     9    10    1
    40    10    11    1
    41     4     5    1
    42     5     1    1
    43    36    31   ar
    44    11     6    1
    45    17    12   ar
    46    24    25    1
    47    28    29    1
@<TRIPOS>MOLECULE
*****
 44 47 0 0 0
SMALL
GASTEIGER

@<TRIPOS>ATOM
      1 C         138.8115  140.9440  160.5332 C.3     1  UNL1        0.0925
      2 C         139.1006  140.0904  159.3342 C.3     1  UNL1        0.0123
      3 C         139.3148  140.9983  158.1596 C.3     1  UNL1        0.0165
      4 C         139.1581  142.4131  158.6327 C.3     1  UNL1        0.0581
      5 C         138.8470  142.3795  160.0997 C.3     1  UNL1        0.0268
      6 N         139.2893  143.6451  157.7872 N.3     1  UNL1       -0.2739
      7 C         140.0889  144.8134  158.2830 C.3     1  UNL1        0.0724
      8 C         140.2201  146.0454  157.4376 C.3     1  UNL1        0.0217
      9 C         139.5519  146.1093  156.0962 C.3     1  UNL1        0.0251
     10 C         138.7523  144.9409  155.6003 C.3     1  UNL1        0.0217
     11 C         138.6210  143.7089  156.4458 C.3     1  UNL1        0.0724
     12 C         139.6831  147.3413  155.2507 C.ar    1  UNL1       -0.0224
     13 C         140.2918  147.2508  153.8828 C.ar    1  UNL1       -0.0043
     14 C         140.4231  148.4828  153.0373 C.ar    1  UNL1       -0.0003
     15 C         139.9457  149.8054  153.5598 C.ar    1  UNL1        0.0011
     16 C         139.3370  149.8959  154.9278 C.ar    1  UNL1        0.0137
     17 C         139.2057  148.6638  155.7733 C.ar    1  UNL1       -0.0031
     18 C         138.8596  151.2184  155.4503 C.2     1  UNL1        0.0729
     19 O         139.0360  151.5598  156.9002 O.co2   1  UNL1       -0.5446
     20 O         138.2058  152.1995  154.5229 O.co2   1  UNL1       -0.5446
     21 C         137.3096  139.4605  160.7417 C.3     1  UNL1        0.0298
     22 C         138.7112  139.6295  161.2488 C.3     1  UNL1        0.0961
     23 C         139.9132  139.4907  161.8474 C.3     1  UNL1        0.0298
     24 O         138.6108  138.3149  161.9643 O.3     1  UNL1       -0.3863
     25 H         139.4436  138.1346  162.4277 H       1  UNL1        0.2102
     26 C         138.5014  141.5228  161.8818 C.2     1  UNL1        0.2240
     27 O         137.0865  141.5499  162.3791 O.2     1  UNL1       -0.2750
     28 N         139.6063  142.0746  162.7333 N.am    1  UNL1       -0.3004
     29 H         140.5350  142.0568  162.4069 H       1  UNL1        0.1497
     30 C         139.2962  142.6534  164.0819 C.3     1  UNL1        0.1163
     31 C         139.3904  141.7930  165.3070 C.ar    1  UNL1       -0.0027
     32 C         140.1973  142.2516  166.4854 C.ar    1  UNL1        0.0012
     33 C         140.2915  141.3912  167.7104 C.ar    1  UNL1        0.0711
     34 C         139.5787  140.0722  167.7572 C.ar    1  UNL1        0.0077
     35 C         138.7718  139.6136  166.5788 C.ar    1  UNL1        0.0711
     36 C         138.6777  140.4740  165.3538 C.ar    1  UNL1        0.0012
     37 C         141.0984  141.8498  168.8889 C.3     1  UNL1        0.4186
     38 F         141.9053  142.3085  170.0672 F       1  UNL1       -0.1659
     39 F         139.9852  142.7703  169.2929 F       1  UNL1       -0.1659
     40 F         142.2117  140.9294  168.4848 F       1  UNL1       -0.1659
     41 C         138.0591  138.2946  166.6256 C.3     1  UNL1        0.4186
     42 F         137.3463  136.9756  166.6723 F       1  UNL1       -0.1659
     43 F         138.7551  137.8738  165.3652 F       1  UNL1       -0.1659
     44 F         137.3630  138.7154  167.8859 F       1  UNL1       -0.1659
@<TRIPOS>UNITY_ATOM_ATTR
19 1
charge -1
@<TRIPOS>BOND
     1    21    22    1
     2    22    23    1
     3    22    24    1
     4     1    22    1
     5     1    26    1
     6    26    27    2
     7    26    28   am
     8    28    30    1
     9    30    31    1
    10    31    32   ar
    11    32    33   ar
    12    33    37    1
    13    37    38    1
    14    37    39    1
    15    37    40    1
    16    33    34   ar
    17    34    35   ar
    18    35    41    1
    19    41    42    1
    20    41    43    1
    21    41    44    1
    22    35    36   ar
    23     1     2    1
    24     2     3    1
    25     3     4    1
    26     4     6    1
    27     6     7    1
    28     7     8    1
    29     8     9    1
    30     9    12    1
    31    12    13   ar
    32    13    14   ar
    33    14    15   ar
    34    15    16   ar
    35    16    18    1
    36    18    19   ar
    37    18    20   ar
    38    16    17   ar
    39     9    10    1
    40    10    11    1
    41     4     5    1
    42     5     1    1
    43    36    31   ar
    44    11     6    1
    45    17    12   ar
    46    24    25    1
    47    28    29    1
@<TRIPOS>MOLECULE
*****
 44 47 0 0 0
SMALL
GASTEIGER

@<TRIPOS>ATOM
      1 C         141.1536  139.6309  161.1574 C.3     1  UNL1        0.0925
      2 C         140.8660  138.7999  159.9421 C.3     1  UNL1        0.0123
      3 C         140.6046  139.7308  158.7954 C.3     1  UNL1        0.0165
      4 C         140.7305  141.1370  159.3018 C.3     1  UNL1        0.0581
      5 C         141.0698  141.0753  160.7616 C.3     1  UNL1        0.0268
      6 N         140.5490  142.3858  158.4908 N.3     1  UNL1       -0.2739
      7 C         141.3216  143.6239  158.8371 C.3     1  UNL1        0.0724
      8 C         141.1401  144.8727  158.0262 C.3     1  UNL1        0.0217
      9 C         140.1860  144.8833  156.8688 C.3     1  UNL1        0.0251
     10 C         139.4134  143.6450  156.5224 C.3     1  UNL1        0.0217
     11 C         139.5949  142.3963  157.3334 C.3     1  UNL1        0.0724
     12 C         140.0045  146.1320  156.0578 C.ar    1  UNL1       -0.0224
     13 C         140.5721  146.2153  154.6718 C.ar    1  UNL1       -0.0043
     14 C         140.3906  147.4640  153.8609 C.ar    1  UNL1       -0.0003
     15 C         139.6415  148.6295  154.4358 C.ar    1  UNL1        0.0011
     16 C         139.0739  148.5462  155.8219 C.ar    1  UNL1        0.0137
     17 C         139.2554  147.2974  156.6328 C.ar    1  UNL1       -0.0031
     18 C         138.3248  149.7116  156.3968 C.2     1  UNL1        0.0729
     19 O         137.8580  149.6738  157.8218 O.co2   1  UNL1       -0.5446
     20 O         138.0426  150.9149  155.5468 O.co2   1  UNL1       -0.5446
     21 C         142.6904  138.1737  161.2788 C.3     1  UNL1        0.0298
     22 C         141.3040  138.3021  161.8369 C.3     1  UNL1        0.0961
     23 C         140.1262  138.1249  162.4722 C.3     1  UNL1        0.0298
     24 O         141.4545  136.9733  162.5164 O.3     1  UNL1       -0.3863
     25 H         140.6417  136.7652  163.0032 H       1  UNL1        0.2102
     26 C         141.4726  140.1841  162.5146 C.2     1  UNL1        0.2240
     27 O         142.6130  139.6166  163.3067 O.2     1  UNL1       -0.2750
     28 N         140.6512  141.3049  163.0797 N.am    1  UNL1       -0.3004
     29 H         139.9027  141.6773  162.5598 H       1  UNL1        0.1497
     30 C         140.9702  141.8581  164.4370 C.3     1  UNL1        0.1163
     31 C         140.3647  141.2376  165.6611 C.ar    1  UNL1       -0.0027
     32 C         139.5478  139.9853  165.5413 C.ar    1  UNL1        0.0012
     33 C         138.9424  139.3649  166.7654 C.ar    1  UNL1        0.0711
     34 C         139.1538  139.9968  168.1093 C.ar    1  UNL1        0.0077
     35 C         139.9707  141.2491  168.2291 C.ar    1  UNL1        0.0711
     36 C         140.5761  141.8695  167.0050 C.ar    1  UNL1        0.0012
     37 C         138.1254  138.1125  166.6457 C.3     1  UNL1        0.4186
     38 F         137.3085  136.8602  166.5260 F       1  UNL1       -0.1659
     39 F         137.1781  138.6310  167.6867 F       1  UNL1       -0.1659
     40 F         139.0728  137.5940  165.6047 F       1  UNL1       -0.1659
     41 C         140.1821  141.8810  169.5730 C.3     1  UNL1        0.4186
     42 F         140.3935  142.5128  170.9169 F       1  UNL1       -0.1659
     43 F         139.0603  141.0595  170.1357 F       1  UNL1       -0.1659
     44 F         141.3039  142.7024  169.0102 F       1  UNL1       -0.1659
@<TRIPOS>UNITY_ATOM_ATTR
19 1
charge -1
@<TRIPOS>BOND
     1    21    22    1
     2    22    23    1
     3    22    24    1
     4     1    22    1
     5     1    26    1
     6    26    27    2
     7    26    28   am
     8    28    30    1
     9    30    31    1
    10    31    32   ar
    11    32    33   ar
    12    33    37    1
    13    37    38    1
    14    37    39    1
    15    37    40    1
    16    33    34   ar
    17    34    35   ar
    18    35    41    1
    19    41    42    1
    20    41    43    1
    21    41    44    1
    22    35    36   ar
    23     1     2    1
    24     2     3    1
    25     3     4    1
    26     4     6    1
    27     6     7    1
    28     7     8    1
    29     8     9    1
    30     9    12    1
    31    12    13   ar
    32    13    14   ar
    33    14    15   ar
    34    15    16   ar
    35    16    18    1
    36    18    19   ar
    37    18    20   ar
    38    16    17   ar
    39     9    10    1
    40    10    11    1
    41     4     5    1
    42     5     1    1
    43    36    31   ar
    44    11     6    1
    45    17    12   ar
    46    24    25    1
    47    28    29    1
@<TRIPOS>MOLECULE
*****
 44 47 0 0 0
SMALL
GASTEIGER

@<TRIPOS>ATOM
      1 C         141.0819  139.5200  161.3158 C.3     1  UNL1        0.0925
      2 C         140.7269  138.6792  160.1254 C.3     1  UNL1        0.0123
      3 C         140.4590  139.5992  158.9714 C.3     1  UNL1        0.0165
      4 C         140.6485  141.0086  159.4485 C.3     1  UNL1        0.0581
      5 C         141.0335  140.9596  160.8974 C.3     1  UNL1        0.0268
      6 N         140.4822  142.2491  158.6218 N.3     1  UNL1       -0.2739
      7 C         140.2917  142.1417  157.1379 C.3     1  UNL1        0.0724
      8 C         140.1254  143.3822  156.3113 C.3     1  UNL1        0.0217
      9 C         140.1496  144.7303  156.9685 C.3     1  UNL1        0.0251
     10 C         140.3402  144.8378  158.4526 C.3     1  UNL1        0.0217
     11 C         140.5065  143.5972  159.2792 C.3     1  UNL1        0.0724
     12 C         139.9833  145.9709  156.1419 C.ar    1  UNL1       -0.0224
     13 C         140.5456  146.0272  154.7524 C.ar    1  UNL1       -0.0043
     14 C         140.3793  147.2678  153.9258 C.ar    1  UNL1       -0.0003
     15 C         139.6508  148.4520  154.4886 C.ar    1  UNL1        0.0011
     16 C         139.0885  148.3957  155.8782 C.ar    1  UNL1        0.0137
     17 C         139.2548  147.1551  156.7048 C.ar    1  UNL1       -0.0031
     18 C         138.3599  149.5799  156.4410 C.2     1  UNL1        0.0729
     19 O         137.9147  149.5751  157.8733 O.co2   1  UNL1       -0.5446
     20 O         138.0766  150.7689  155.5714 O.co2   1  UNL1       -0.5446
     21 C         142.5639  138.0044  161.3972 C.3     1  UNL1        0.0298
     22 C         141.2102  138.1983  162.0135 C.3     1  UNL1        0.0961
     23 C         140.0560  138.0798  162.7036 C.3     1  UNL1        0.0298
     24 O         141.3385  136.8766  162.7112 O.3     1  UNL1       -0.3863
     25 H         140.5408  136.7100  163.2374 H       1  UNL1        0.2102
     26 C         141.4637  140.0845  162.6520 C.2     1  UNL1        0.2240
     27 O         142.6432  139.5271  163.3923 O.2     1  UNL1       -0.2750
     28 N         140.6660  141.2064  163.2479 N.am    1  UNL1       -0.3004
     29 H         139.8919  141.5722  162.7620 H       1  UNL1        0.1497
     30 C         141.0478  141.7709  164.5841 C.3     1  UNL1        0.1163
     31 C         140.4361  141.2148  165.8358 C.ar    1  UNL1       -0.0027
     32 C         140.7676  141.8224  167.1666 C.ar    1  UNL1        0.0012
     33 C         140.1559  141.2663  168.4181 C.ar    1  UNL1        0.0711
     34 C         139.2127  140.1026  168.3390 C.ar    1  UNL1        0.0077
     35 C         138.8812  139.4951  167.0082 C.ar    1  UNL1        0.0711
     36 C         139.4929  140.0512  165.7567 C.ar    1  UNL1        0.0012
     37 C         140.4874  141.8739  169.7490 C.3     1  UNL1        0.4186
     38 F         140.8188  142.4813  171.0798 F       1  UNL1       -0.1659
     39 F         140.4418  140.5143  170.3810 F       1  UNL1       -0.1659
     40 F         140.5329  143.2334  169.1170 F       1  UNL1       -0.1659
     41 C         137.9380  138.3314  166.9291 C.3     1  UNL1        0.4186
     42 F         136.9948  137.1678  166.8499 F       1  UNL1       -0.1659
     43 F         137.3578  138.7112  168.2592 F       1  UNL1       -0.1659
     44 F         138.5181  137.9516  165.5990 F       1  UNL1       -0.1659
@<TRIPOS>UNITY_ATOM_ATTR
19 1
charge -1
@<TRIPOS>BOND
     1    21    22    1
     2    22    23    1
     3    22    24    1
     4     1    22    1
     5     1    26    1
     6    26    27    2
     7    26    28   am
     8    28    30    1
     9    30    31    1
    10    31    32   ar
    11    32    33   ar
    12    33    37    1
    13    37    38    1
    14    37    39    1
    15    37    40    1
    16    33    34   ar
    17    34    35   ar
    18    35    41    1
    19    41    42    1
    20    41    43    1
    21    41    44    1
    22    35    36   ar
    23     1     2    1
    24     2     3    1
    25     3     4    1
    26     4     6    1
    27     6     7    1
    28     7     8    1
    29     8     9    1
    30     9    12    1
    31    12    13   ar
    32    13    14   ar
    33    14    15   ar
    34    15    16   ar
    35    16    18    1
    36    18    19   ar
    37    18    20   ar
    38    16    17   ar
    39     9    10    1
    40    10    11    1
    41     4     5    1
    42     5     1    1
    43    36    31   ar
    44    11     6    1
    45    17    12   ar
    46    24    25    1
    47    28    29    1
@<TRIPOS>MOLECULE
*****
 44 47 0 0 0
SMALL
GASTEIGER

@<TRIPOS>ATOM
      1 C         138.8551  140.8789  160.5435 C.3     1  UNL1        0.0925
      2 C         139.1736  140.0291  159.3492 C.3     1  UNL1        0.0123
      3 C         139.3857  140.9393  158.1760 C.3     1  UNL1        0.0165
      4 C         139.1984  142.3516  158.6451 C.3     1  UNL1        0.0581
      5 C         138.8705  142.3143  160.1084 C.3     1  UNL1        0.0268
      6 N         139.3180  143.5848  157.7995 N.3     1  UNL1       -0.2739
      7 C         138.6278  143.6521  156.4695 C.3     1  UNL1        0.0724
      8 C         138.7474  144.8852  155.6239 C.3     1  UNL1        0.0217
      9 C         139.5573  146.0512  156.1084 C.3     1  UNL1        0.0251
     10 C         140.2476  145.9839  157.4385 C.3     1  UNL1        0.0217
     11 C         140.1280  144.7507  158.2841 C.3     1  UNL1        0.0724
     12 C         139.6769  147.2843  155.2628 C.ar    1  UNL1       -0.0224
     13 C         140.2833  147.1989  153.8935 C.ar    1  UNL1       -0.0043
     14 C         140.4029  148.4320  153.0479 C.ar    1  UNL1       -0.0003
     15 C         139.9161  149.7506  153.5717 C.ar    1  UNL1        0.0011
     16 C         139.3097  149.8361  154.9410 C.ar    1  UNL1        0.0137
     17 C         139.1901  148.6030  155.7866 C.ar    1  UNL1       -0.0031
     18 C         138.8229  151.1547  155.4648 C.2     1  UNL1        0.0729
     19 O         138.8793  151.4445  156.9354 O.co2   1  UNL1       -0.5446
     20 O         138.2798  152.1835  154.5178 O.co2   1  UNL1       -0.5446
     21 C         140.2309  139.6468  161.5871 C.3     1  UNL1        0.0298
     22 C         138.7695  139.5637  161.2596 C.3     1  UNL1        0.0961
     23 C         137.4747  139.2046  161.1296 C.3     1  UNL1        0.0298
     24 O         138.6839  138.2484  161.9758 O.3     1  UNL1       -0.3863
     25 H         137.7744  137.9142  161.9305 H       1  UNL1        0.2102
     26 C         138.5188  141.4538  161.8875 C.2     1  UNL1        0.2240
     27 O         137.0932  141.4888  162.3528 O.2     1  UNL1       -0.2750
     28 N         139.6080  141.9937  162.7662 N.am    1  UNL1       -0.3004
     29 H         140.5437  141.9707  162.4608 H       1  UNL1        0.1497
     30 C         139.2717  142.5686  164.1102 C.3     1  UNL1        0.1163
     31 C         139.3487  141.7064  165.3353 C.ar    1  UNL1       -0.0027
     32 C         138.6915  140.3581  165.3461 C.ar    1  UNL1        0.0012
     33 C         138.7685  139.4961  166.5712 C.ar    1  UNL1        0.0711
     34 C         139.5028  139.9823  167.7855 C.ar    1  UNL1        0.0077
     35 C         140.1600  141.3306  167.7747 C.ar    1  UNL1        0.0711
     36 C         140.0829  142.1926  166.5496 C.ar    1  UNL1        0.0012
     37 C         138.1113  138.1477  166.5820 C.3     1  UNL1        0.4186
     38 F         137.4541  136.7994  166.5929 F       1  UNL1       -0.1659
     39 F         137.2715  138.5665  167.7521 F       1  UNL1       -0.1659
     40 F         138.9512  137.7289  165.4119 F       1  UNL1       -0.1659
     41 C         140.8942  141.8168  168.9890 C.3     1  UNL1        0.4186
     42 F         141.6284  142.3030  170.2033 F       1  UNL1       -0.1659
     43 F         141.4149  140.4307  169.2291 F       1  UNL1       -0.1659
     44 F         140.3735  143.2029  168.7488 F       1  UNL1       -0.1659
@<TRIPOS>UNITY_ATOM_ATTR
19 1
charge -1
@<TRIPOS>BOND
     1    21    22    1
     2    22    23    1
     3    22    24    1
     4     1    22    1
     5     1    26    1
     6    26    27    2
     7    26    28   am
     8    28    30    1
     9    30    31    1
    10    31    32   ar
    11    32    33   ar
    12    33    37    1
    13    37    38    1
    14    37    39    1
    15    37    40    1
    16    33    34   ar
    17    34    35   ar
    18    35    41    1
    19    41    42    1
    20    41    43    1
    21    41    44    1
    22    35    36   ar
    23     1     2    1
    24     2     3    1
    25     3     4    1
    26     4     6    1
    27     6     7    1
    28     7     8    1
    29     8     9    1
    30     9    12    1
    31    12    13   ar
    32    13    14   ar
    33    14    15   ar
    34    15    16   ar
    35    16    18    1
    36    18    19   ar
    37    18    20   ar
    38    16    17   ar
    39     9    10    1
    40    10    11    1
    41     4     5    1
    42     5     1    1
    43    36    31   ar
    44    11     6    1
    45    17    12   ar
    46    24    25    1
    47    28    29    1
@<TRIPOS>MOLECULE
*****
 44 47 0 0 0
SMALL
GASTEIGER

@<TRIPOS>ATOM
      1 C         143.3854  142.6270  162.6654 C.3     1  UNL1        0.0925
      2 C         144.6593  143.0488  161.9951 C.3     1  UNL1        0.0123
      3 C         144.8228  142.2267  160.7512 C.3     1  UNL1        0.0165
      4 C         143.6500  141.2967  160.6527 C.3     1  UNL1        0.0581
      5 C         142.7617  141.5441  161.8357 C.3     1  UNL1        0.0268
      6 N         143.4081  140.2952  159.5625 N.3     1  UNL1       -0.2739
      7 C         142.9844  138.8984  159.9078 C.3     1  UNL1        0.0724
      8 C         142.7425  137.8968  158.8177 C.3     1  UNL1        0.0217
      9 C         142.9242  138.2922  157.3822 C.3     1  UNL1        0.0251
     10 C         143.3479  139.6891  157.0369 C.3     1  UNL1        0.0217
     11 C         143.5898  140.6906  158.1270 C.3     1  UNL1        0.0724
     12 C         142.6823  137.2907  156.2920 C.ar    1  UNL1       -0.0224
     13 C         142.6001  137.7418  154.8638 C.ar    1  UNL1       -0.0043
     14 C         142.3582  136.7403  153.7737 C.ar    1  UNL1       -0.0003
     15 C         142.1984  135.2876  154.1117 C.ar    1  UNL1        0.0011
     16 C         142.2805  134.8365  155.5400 C.ar    1  UNL1        0.0137
     17 C         142.5225  135.8380  156.6302 C.ar    1  UNL1       -0.0031
     18 C         142.1207  133.3838  155.8781 C.2     1  UNL1        0.0729
     19 O         142.6568  132.8521  157.1741 O.co2   1  UNL1       -0.5446
     20 O         141.4248  132.4630  154.9200 O.co2   1  UNL1       -0.5446
     21 C         143.1850  144.7347  162.7961 C.3     1  UNL1        0.0298
     22 C         143.7592  143.6671  163.6795 C.3     1  UNL1        0.0961
     23 C         144.3420  142.9613  164.6718 C.3     1  UNL1        0.0298
     24 O         144.1329  144.7073  164.6936 O.3     1  UNL1       -0.3863
     25 H         144.5636  144.2806  165.4509 H       1  UNL1        0.2102
     26 C         142.1897  142.4225  163.5477 C.2     1  UNL1        0.2240
     27 O         141.3087  143.5848  163.8981 O.2     1  UNL1       -0.2750
     28 N         141.8750  141.0557  164.0796 N.am    1  UNL1       -0.3004
     29 H         142.4533  140.2928  163.8496 H       1  UNL1        0.1497
     30 C         140.6794  140.8513  164.9619 C.3     1  UNL1        0.1163
     31 C         140.8216  140.9476  166.4521 C.ar    1  UNL1       -0.0027
     32 C         139.6944  140.5158  167.3425 C.ar    1  UNL1        0.0012
     33 C         139.8366  140.6121  168.8326 C.ar    1  UNL1        0.0711
     34 C         141.1061  141.1401  169.4323 C.ar    1  UNL1        0.0077
     35 C         142.2333  141.5719  168.5418 C.ar    1  UNL1        0.0711
     36 C         142.0911  141.4756  167.0517 C.ar    1  UNL1        0.0012
     37 C         138.7094  140.1804  169.7232 C.3     1  UNL1        0.4186
     38 F         137.5821  139.7487  170.6136 F       1  UNL1       -0.1659
     39 F         138.0773  139.4560  168.5718 F       1  UNL1       -0.1659
     40 F         139.3414  140.9048  170.8745 F       1  UNL1       -0.1659
     41 C         143.5028  142.0999  169.1415 C.3     1  UNL1        0.4186
     42 F         144.7723  142.6279  169.7412 F       1  UNL1       -0.1659
     43 F         143.1665  141.4318  170.4417 F       1  UNL1       -0.1659
     44 F         143.8392  142.7679  167.8413 F       1  UNL1       -0.1659
@<TRIPOS>UNITY_ATOM_ATTR
19 1
charge -1
@<TRIPOS>BOND
     1    21    22    1
     2    22    23    1
     3    22    24    1
     4     1    22    1
     5     1    26    1
     6    26    27    2
     7    26    28   am
     8    28    30    1
     9    30    31    1
    10    31    32   ar
    11    32    33   ar
    12    33    37    1
    13    37    38    1
    14    37    39    1
    15    37    40    1
    16    33    34   ar
    17    34    35   ar
    18    35    41    1
    19    41    42    1
    20    41    43    1
    21    41    44    1
    22    35    36   ar
    23     1     2    1
    24     2     3    1
    25     3     4    1
    26     4     6    1
    27     6     7    1
    28     7     8    1
    29     8     9    1
    30     9    12    1
    31    12    13   ar
    32    13    14   ar
    33    14    15   ar
    34    15    16   ar
    35    16    18    1
    36    18    19   ar
    37    18    20   ar
    38    16    17   ar
    39     9    10    1
    40    10    11    1
    41     4     5    1
    42     5     1    1
    43    36    31   ar
    44    11     6    1
    45    17    12   ar
    46    24    25    1
    47    28    29    1
@<TRIPOS>MOLECULE
*****
 44 47 0 0 0
SMALL
GASTEIGER

@<TRIPOS>ATOM
      1 C         143.3903  142.8504  162.7223 C.3     1  UNL1        0.0925
      2 C         144.6653  143.2653  162.0497 C.3     1  UNL1        0.0123
      3 C         144.8229  142.4410  160.8065 C.3     1  UNL1        0.0165
      4 C         143.6455  141.5167  160.7106 C.3     1  UNL1        0.0581
      5 C         142.7600  141.7697  161.8947 C.3     1  UNL1        0.0268
      6 N         143.3971  140.5153  159.6219 N.3     1  UNL1       -0.2739
      7 C         142.8039  139.1782  159.9538 C.3     1  UNL1        0.0724
      8 C         142.5555  138.1767  158.8650 C.3     1  UNL1        0.0217
      9 C         142.9002  138.5124  157.4443 C.3     1  UNL1        0.0251
     10 C         143.4934  139.8496  157.1124 C.3     1  UNL1        0.0217
     11 C         143.7418  140.8510  158.2011 C.3     1  UNL1        0.0724
     12 C         142.6518  137.5109  156.3556 C.ar    1  UNL1       -0.0224
     13 C         142.6074  137.9553  154.9236 C.ar    1  UNL1       -0.0043
     14 C         142.3590  136.9539  153.8349 C.ar    1  UNL1       -0.0003
     15 C         142.1549  135.5080  154.1781 C.ar    1  UNL1        0.0011
     16 C         142.1993  135.0636  155.6101 C.ar    1  UNL1        0.0137
     17 C         142.4477  136.0650  156.6989 C.ar    1  UNL1       -0.0031
     18 C         141.9952  133.6177  155.9534 C.2     1  UNL1        0.0729
     19 O         142.7404  133.0075  157.1032 O.co2   1  UNL1       -0.5446
     20 O         141.0460  132.7821  155.1467 O.co2   1  UNL1       -0.5446
     21 C         144.4468  142.8367  164.5618 C.3     1  UNL1        0.0298
     22 C         143.7706  143.8897  163.7348 C.3     1  UNL1        0.0961
     23 C         143.2631  145.0356  163.2331 C.3     1  UNL1        0.0298
     24 O         144.1510  144.9291  164.7473 O.3     1  UNL1       -0.3863
     25 H         143.8208  145.7951  164.4614 H       1  UNL1        0.2102
     26 C         142.1949  142.6528  163.6065 C.2     1  UNL1        0.2240
     27 O         141.3693  143.8327  164.0263 O.2     1  UNL1       -0.2750
     28 N         141.8250  141.2752  164.0709 N.am    1  UNL1       -0.3004
     29 H         142.3669  140.5008  163.7954 H       1  UNL1        0.1497
     30 C         140.6296  141.0776  164.9551 C.3     1  UNL1        0.1163
     31 C         140.7883  141.0978  166.4466 C.ar    1  UNL1       -0.0027
     32 C         142.0527  141.6231  167.0593 C.ar    1  UNL1        0.0012
     33 C         142.2114  141.6432  168.5507 C.ar    1  UNL1        0.0711
     34 C         141.1057  141.1380  169.4294 C.ar    1  UNL1        0.0077
     35 C         139.8413  140.6127  168.8168 C.ar    1  UNL1        0.0711
     36 C         139.6826  140.5926  167.3254 C.ar    1  UNL1        0.0012
     37 C         143.4758  142.1685  169.1634 C.3     1  UNL1        0.4186
     38 F         144.7401  142.6938  169.7761 F       1  UNL1       -0.1659
     39 F         143.0872  141.5667  170.4812 F       1  UNL1       -0.1659
     40 F         143.8644  142.7704  167.8456 F       1  UNL1       -0.1659
     41 C         138.7356  140.1075  169.6956 C.3     1  UNL1        0.4186
     42 F         137.6299  139.6023  170.5744 F       1  UNL1       -0.1659
     43 F         138.0714  139.4863  168.5027 F       1  UNL1       -0.1659
     44 F         139.3998  140.7288  170.8884 F       1  UNL1       -0.1659
@<TRIPOS>UNITY_ATOM_ATTR
19 1
charge -1
@<TRIPOS>BOND
     1    21    22    1
     2    22    23    1
     3    22    24    1
     4     1    22    1
     5     1    26    1
     6    26    27    2
     7    26    28   am
     8    28    30    1
     9    30    31    1
    10    31    32   ar
    11    32    33   ar
    12    33    37    1
    13    37    38    1
    14    37    39    1
    15    37    40    1
    16    33    34   ar
    17    34    35   ar
    18    35    41    1
    19    41    42    1
    20    41    43    1
    21    41    44    1
    22    35    36   ar
    23     1     2    1
    24     2     3    1
    25     3     4    1
    26     4     6    1
    27     6     7    1
    28     7     8    1
    29     8     9    1
    30     9    12    1
    31    12    13   ar
    32    13    14   ar
    33    14    15   ar
    34    15    16   ar
    35    16    18    1
    36    18    19   ar
    37    18    20   ar
    38    16    17   ar
    39     9    10    1
    40    10    11    1
    41     4     5    1
    42     5     1    1
    43    36    31   ar
    44    11     6    1
    45    17    12   ar
    46    24    25    1
    47    28    29    1
@<TRIPOS>MOLECULE
*****
 44 47 0 0 0
SMALL
GASTEIGER

@<TRIPOS>ATOM
      1 C         141.5011  143.3825  162.1865 C.3     1  UNL1        0.0925
      2 C         142.3549  144.1882  161.2528 C.3     1  UNL1        0.0123
      3 C         142.7493  143.3049  160.1065 C.3     1  UNL1        0.0165
      4 C         142.1393  141.9532  160.3317 C.3     1  UNL1        0.0581
      5 C         141.3678  142.0011  161.6172 C.3     1  UNL1        0.0268
      6 N         142.2766  140.7625  159.4297 N.3     1  UNL1       -0.2739
      7 C         141.4459  139.5375  159.6730 C.3     1  UNL1        0.0724
      8 C         141.5832  138.3469  158.7710 C.3     1  UNL1        0.0217
      9 C         142.5513  138.3812  157.6257 C.3     1  UNL1        0.0251
     10 C         143.3820  139.6063  157.3825 C.3     1  UNL1        0.0217
     11 C         143.2447  140.7970  158.2844 C.3     1  UNL1        0.0724
     12 C         142.6886  137.1906  156.7238 C.ar    1  UNL1       -0.0224
     13 C         142.5322  137.3513  155.2406 C.ar    1  UNL1       -0.0043
     14 C         142.6695  136.1607  154.3387 C.ar    1  UNL1       -0.0003
     15 C         142.9632  134.8094  154.9199 C.ar    1  UNL1        0.0011
     16 C         143.1195  134.6487  156.4031 C.ar    1  UNL1        0.0137
     17 C         142.9822  135.8393  157.3051 C.ar    1  UNL1       -0.0031
     18 C         143.4132  133.2974  156.9843 C.2     1  UNL1        0.0729
     19 O         142.4169  132.1856  156.8381 O.co2   1  UNL1       -0.5446
     20 O         144.7029  133.0580  157.7117 O.co2   1  UNL1       -0.5446
     21 C         140.5297  145.2560  161.9711 C.3     1  UNL1        0.0298
     22 C         141.4538  144.6508  162.9859 C.3     1  UNL1        0.0961
     23 C         142.2504  144.3986  164.0462 C.3     1  UNL1        0.0298
     24 O         141.4064  145.9192  163.7854 O.3     1  UNL1       -0.3863
     25 H         141.9596  145.8237  164.5764 H       1  UNL1        0.2102
     26 C         140.6374  142.8419  163.2873 C.2     1  UNL1        0.2240
     27 O         139.4044  143.5858  163.7072 O.2     1  UNL1       -0.2750
     28 N         141.0067  141.5573  163.9681 N.am    1  UNL1       -0.3004
     29 H         141.8159  141.0690  163.6925 H       1  UNL1        0.1497
     30 C         140.1430  141.0167  165.0689 C.3     1  UNL1        0.1163
     31 C         140.5955  141.1175  166.4955 C.ar    1  UNL1       -0.0027
     32 C         140.3612  142.3811  167.2691 C.ar    1  UNL1        0.0012
     33 C         140.8137  142.4818  168.6957 C.ar    1  UNL1        0.0711
     34 C         141.5005  141.3191  169.3486 C.ar    1  UNL1        0.0077
     35 C         141.7348  140.0556  168.5750 C.ar    1  UNL1        0.0711
     36 C         141.2823  139.9548  167.1484 C.ar    1  UNL1        0.0012
     37 C         140.5794  143.7454  169.4693 C.3     1  UNL1        0.4186
     38 F         140.3452  145.0089  170.2430 F       1  UNL1       -0.1659
     39 F         141.3700  143.1896  170.6165 F       1  UNL1       -0.1659
     40 F         139.7888  144.3013  168.3222 F       1  UNL1       -0.1659
     41 C         142.4216  138.8928  169.2279 C.3     1  UNL1        0.4186
     42 F         143.1085  137.7301  169.8808 F       1  UNL1       -0.1659
     43 F         143.1962  138.6428  167.9679 F       1  UNL1       -0.1659
     44 F         141.6471  139.1428  170.4879 F       1  UNL1       -0.1659
@<TRIPOS>UNITY_ATOM_ATTR
19 1
charge -1
@<TRIPOS>BOND
     1    21    22    1
     2    22    23    1
     3    22    24    1
     4     1    22    1
     5     1    26    1
     6    26    27    2
     7    26    28   am
     8    28    30    1
     9    30    31    1
    10    31    32   ar
    11    32    33   ar
    12    33    37    1
    13    37    38    1
    14    37    39    1
    15    37    40    1
    16    33    34   ar
    17    34    35   ar
    18    35    41    1
    19    41    42    1
    20    41    43    1
    21    41    44    1
    22    35    36   ar
    23     1     2    1
    24     2     3    1
    25     3     4    1
    26     4     6    1
    27     6     7    1
    28     7     8    1
    29     8     9    1
    30     9    12    1
    31    12    13   ar
    32    13    14   ar
    33    14    15   ar
    34    15    16   ar
    35    16    18    1
    36    18    19   ar
    37    18    20   ar
    38    16    17   ar
    39     9    10    1
    40    10    11    1
    41     4     5    1
    42     5     1    1
    43    36    31   ar
    44    11     6    1
    45    17    12   ar
    46    24    25    1
    47    28    29    1
