@<TRIPOS>MOLECULE
*****
 41 46 0 0 0
SMALL
GASTEIGER

@<TRIPOS>ATOM
      1 C         139.5002  140.4813  158.9654 C.3     1  UNL1        0.0546
      2 C         139.3173  139.0969  158.4176 C.3     1  UNL1        0.0180
      3 C         140.5875  138.7009  157.7250 C.3     1  UNL1        0.0310
      4 C         141.2595  137.6006  156.9584 C.3     1  UNL1        0.0948
      5 N         142.6428  138.0602  156.6044 N.am    1  UNL1       -0.2690
      6 C         143.6639  137.2735  155.8372 C.2     1  UNL1        0.2923
      7 O         145.0127  137.8671  155.5573 O.2     1  UNL1       -0.2604
      8 C         142.8257  139.4445  157.1522 C.3     1  UNL1        0.1029
      9 C         141.5555  139.8406  157.8448 C.3     1  UNL1        0.0902
     10 C         140.8835  140.9409  158.6114 C.3     1  UNL1        0.0261
     11 C         142.5234  140.9802  157.9645 C.2     1  UNL1        0.2267
     12 O         142.7189  141.9223  156.8138 O.2     1  UNL1       -0.2748
     13 N         143.2959  141.1777  159.2351 N.am    1  UNL1       -0.2750
     14 C         144.2638  142.3173  159.3549 C.3     1  UNL1        0.1000
     15 C         145.0363  142.5148  160.6254 C.3     1  UNL1        0.0670
     16 C         144.8408  141.5727  161.7761 C.ar    1  UNL1        0.0583
     17 N         145.6133  141.7703  163.0467 N.ar    1  UNL1       -0.2484
     18 C         145.4178  140.8282  164.1975 C.ar    1  UNL1        0.1023
     19 C         144.4498  139.6886  164.0777 C.ar    1  UNL1        0.0902
     20 C         143.6774  139.4910  162.8071 C.ar    1  UNL1        0.0040
     21 C         143.8729  140.4331  161.6564 C.ar    1  UNL1        0.0113
     22 C         143.1004  140.2356  160.3859 C.3     1  UNL1        0.1213
     23 C         144.2544  138.7465  165.2284 C.3     1  UNL1        0.4200
     24 F         144.0589  137.8044  166.3792 F       1  UNL1       -0.1658
     25 F         145.7414  138.6061  165.3661 F       1  UNL1       -0.1658
     26 F         142.7673  138.8868  165.0907 F       1  UNL1       -0.1658
     27 N         138.4791  141.2680  159.7326 N.3     1  UNL1       -0.2975
     28 H         138.7324  142.2514  159.6370 H       1  UNL1        0.1232
     29 C         138.0377  142.1594  162.1327 C.3     1  UNL1        0.1591
     30 C         137.8394  141.9037  163.5974 C.3     1  UNL1        0.1729
     31 O         137.8842  140.5009  164.1267 O.3     1  UNL1       -0.3511
     32 C         138.1273  139.3537  163.1912 C.3     1  UNL1        0.1437
     33 C         138.3256  139.6094  161.7265 C.3     1  UNL1        0.0503
     34 C         138.2808  141.0123  161.1973 C.3     1  UNL1        0.0865
     35 C         138.5807  144.6854  162.4053 C.3     1  UNL1        0.1742
     36 O         137.9930  143.5622  161.6035 O.3     1  UNL1       -0.3496
     37 C         143.3362  135.8932  155.3499 C.1     1  UNL1       -0.0072
     38 C         143.0085  134.5130  154.8626 C.1     1  UNL1       -0.0831
     39 C         142.6807  133.1327  154.3753 C.3     1  UNL1        0.0646
     40 C         143.0959  131.8639  153.6914 C.3     1  UNL1        0.0140
     41 C         141.6980  132.0109  154.2151 C.3     1  UNL1        0.0140
@<TRIPOS>BOND
     1    35    36    1
     2    36    29    1
     3    29    30    1
     4    30    31    1
     5    31    32    1
     6    32    33    1
     7    33    34    1
     8    34    27    1
     9     1    27    1
    10     1     2    1
    11     3     2    1
    12     3     4    1
    13     4     5    1
    14     5     6   am
    15     6     7    2
    16     6    37    1
    17    37    38    3
    18    38    39    1
    19    39    40    1
    20    40    41    1
    21     5     8    1
    22     8     9    1
    23     9    11    1
    24    11    12    2
    25    11    13   am
    26    13    14    1
    27    14    15    1
    28    15    16    1
    29    16    17   ar
    30    17    18   ar
    31    18    19   ar
    32    19    23    1
    33    23    24    1
    34    23    25    1
    35    23    26    1
    36    19    20   ar
    37    20    21   ar
    38    21    22    1
    39     9    10    1
    40    34    29    1
    41    10     1    1
    42     9     3    1
    43    22    13    1
    44    41    39    1
    45    21    16   ar
    46    27    28    1
@<TRIPOS>MOLECULE
*****
 41 46 0 0 0
SMALL
GASTEIGER

@<TRIPOS>ATOM
      1 C         139.2817  142.6145  159.8115 C.3     1  UNL1        0.0546
      2 C         140.1839  143.4713  158.9737 C.3     1  UNL1        0.0180
      3 C         141.2436  142.5892  158.3829 C.3     1  UNL1        0.0310
      4 C         142.4561  142.5735  157.5001 C.3     1  UNL1        0.0948
      5 N         142.9582  141.1619  157.4271 N.am    1  UNL1       -0.2690
      6 C         144.1529  140.6900  156.6524 C.2     1  UNL1        0.2923
      7 O         144.5360  139.2399  156.6744 O.2     1  UNL1       -0.2604
      8 C         142.0560  140.3052  158.2649 C.3     1  UNL1        0.1029
      9 C         140.9963  141.1872  158.8557 C.3     1  UNL1        0.0902
     10 C         139.7838  141.2029  159.7386 C.3     1  UNL1        0.0261
     11 C         140.7490  139.7854  159.3284 C.2     1  UNL1        0.2267
     12 O         140.2251  138.7535  158.3741 O.2     1  UNL1       -0.2748
     13 N         141.0257  139.4153  160.7555 N.am    1  UNL1       -0.2750
     14 C         140.7784  138.0134  161.2283 C.3     1  UNL1        0.1000
     15 C         141.0551  137.6434  162.6553 C.3     1  UNL1        0.0670
     16 C         141.5790  138.6753  163.6096 C.ar    1  UNL1        0.0583
     17 N         141.8557  138.3052  165.0367 N.ar    1  UNL1       -0.2484
     18 C         142.3797  139.3371  165.9910 C.ar    1  UNL1        0.1023
     19 C         142.6270  140.7390  165.5182 C.ar    1  UNL1        0.0902
     20 C         142.3503  141.1090  164.0912 C.ar    1  UNL1        0.0040
     21 C         141.8263  140.0772  163.1369 C.ar    1  UNL1        0.0113
     22 C         141.5497  140.4472  161.7098 C.3     1  UNL1        0.1213
     23 C         143.1509  141.7709  166.4725 C.3     1  UNL1        0.4200
     24 F         143.6749  142.8028  167.4268 F       1  UNL1       -0.1658
     25 F         143.0012  140.7992  167.6054 F       1  UNL1       -0.1658
     26 F         143.3006  142.7426  165.3397 F       1  UNL1       -0.1658
     27 N         138.0871  143.0865  160.5863 N.3     1  UNL1       -0.2975
     28 H         137.8943  144.0397  160.2786 H       1  UNL1        0.1232
     29 C         138.3696  144.4100  162.8040 C.3     1  UNL1        0.1591
     30 C         138.4116  144.4391  164.3031 C.3     1  UNL1        0.1729
     31 O         138.2131  143.1736  165.0837 O.3     1  UNL1       -0.3511
     32 C         137.9726  141.8791  164.3651 C.3     1  UNL1        0.1437
     33 C         137.9306  141.8500  162.8659 C.3     1  UNL1        0.0503
     34 C         138.1291  143.1155  162.0854 C.3     1  UNL1        0.0865
     35 C         139.9547  146.1750  161.7446 C.3     1  UNL1        0.1742
     36 O         138.5680  145.6754  162.0235 O.3     1  UNL1       -0.3496
     37 C         144.9643  141.6681  155.8556 C.1     1  UNL1       -0.0072
     38 C         145.7757  142.6462  155.0589 C.1     1  UNL1       -0.0831
     39 C         146.5872  143.6244  154.2621 C.3     1  UNL1        0.0646
     40 C         147.8733  144.0005  153.5881 C.3     1  UNL1        0.0140
     41 C         146.7065  144.9425  153.5561 C.3     1  UNL1        0.0140
@<TRIPOS>BOND
     1    35    36    1
     2    36    29    1
     3    29    30    1
     4    30    31    1
     5    31    32    1
     6    32    33    1
     7    33    34    1
     8    34    27    1
     9     1    27    1
    10     1     2    1
    11     3     2    1
    12     3     4    1
    13     4     5    1
    14     5     6   am
    15     6     7    2
    16     6    37    1
    17    37    38    3
    18    38    39    1
    19    39    40    1
    20    40    41    1
    21     5     8    1
    22     8     9    1
    23     9    11    1
    24    11    12    2
    25    11    13   am
    26    13    14    1
    27    14    15    1
    28    15    16    1
    29    16    17   ar
    30    17    18   ar
    31    18    19   ar
    32    19    23    1
    33    23    24    1
    34    23    25    1
    35    23    26    1
    36    19    20   ar
    37    20    21   ar
    38    21    22    1
    39     9    10    1
    40    34    29    1
    41    10     1    1
    42     9     3    1
    43    22    13    1
    44    41    39    1
    45    21    16   ar
    46    27    28    1
@<TRIPOS>MOLECULE
*****
 41 46 0 0 0
SMALL
GASTEIGER

@<TRIPOS>ATOM
      1 C         143.1467  142.2736  158.7065 C.3     1  UNL1        0.0546
      2 C         143.3093  143.6297  158.0864 C.3     1  UNL1        0.0180
      3 C         142.0093  144.0014  157.4370 C.3     1  UNL1        0.0310
      4 C         141.3062  145.0691  156.6524 C.3     1  UNL1        0.0948
      5 N         139.9057  144.6027  156.3863 N.am    1  UNL1       -0.2690
      6 C         138.8526  145.3595  155.6324 C.2     1  UNL1        0.2923
      7 O         137.4894  144.7623  155.4449 O.2     1  UNL1       -0.2604
      8 C         139.7431  143.2466  157.0064 C.3     1  UNL1        0.1029
      9 C         141.0431  142.8749  157.6557 C.3     1  UNL1        0.0902
     10 C         141.7461  141.8071  158.4403 C.3     1  UNL1        0.0261
     11 C         140.0771  141.7485  157.8745 C.2     1  UNL1        0.2267
     12 O         139.8519  140.7330  156.7938 O.2     1  UNL1       -0.2748
     13 N         139.3361  141.6376  159.1741 N.am    1  UNL1       -0.2750
     14 C         138.3701  140.5111  159.3928 C.3     1  UNL1        0.1000
     15 C         137.6292  140.4003  160.6923 C.3     1  UNL1        0.0670
     16 C         137.8544  141.4158  161.7730 C.ar    1  UNL1        0.0583
     17 N         137.1134  141.3049  163.0726 N.ar    1  UNL1       -0.2484
     18 C         137.3386  142.3204  164.1533 C.ar    1  UNL1        0.1023
     19 C         138.3047  143.4469  163.9345 C.ar    1  UNL1        0.0902
     20 C         139.0456  143.5577  162.6350 C.ar    1  UNL1        0.0040
     21 C         138.8204  142.5422  161.5543 C.ar    1  UNL1        0.0113
     22 C         139.5613  142.6531  160.2548 C.3     1  UNL1        0.1213
     23 C         138.5298  144.4624  165.0153 C.3     1  UNL1        0.4200
     24 F         138.7550  145.4779  166.0960 F       1  UNL1       -0.1658
     25 F         140.0100  144.3759  164.7882 F       1  UNL1       -0.1658
     26 F         137.0496  144.5489  165.2424 F       1  UNL1       -0.1658
     27 N         144.1998  141.5168  159.4604 N.3     1  UNL1       -0.2975
     28 H         144.0422  140.5267  159.2725 H       1  UNL1        0.1232
     29 C         144.4035  140.4440  161.8178 C.3     1  UNL1        0.1591
     30 C         144.5110  140.5904  163.3068 C.3     1  UNL1        0.1729
     31 O         144.5224  141.9560  163.9273 O.3     1  UNL1       -0.3511
     32 C         144.4263  143.1753  163.0588 C.3     1  UNL1        0.1437
     33 C         144.3188  143.0289  161.5698 C.3     1  UNL1        0.0503
     34 C         144.3074  141.6632  160.9493 C.3     1  UNL1        0.0865
     35 C         143.3451  138.0815  161.5976 C.3     1  UNL1        0.1742
     36 O         144.3920  139.0784  161.1974 O.3     1  UNL1       -0.3496
     37 C         139.1627  146.7133  155.0660 C.1     1  UNL1       -0.0072
     38 C         139.4728  148.0672  154.4996 C.1     1  UNL1       -0.0831
     39 C         139.7829  149.4212  153.9333 C.3     1  UNL1        0.0646
     40 C         140.3740  150.7908  154.0906 C.3     1  UNL1        0.0140
     41 C         139.7290  150.3966  152.7950 C.3     1  UNL1        0.0140
@<TRIPOS>BOND
     1    35    36    1
     2    36    29    1
     3    29    30    1
     4    30    31    1
     5    31    32    1
     6    32    33    1
     7    33    34    1
     8    34    27    1
     9     1    27    1
    10     1     2    1
    11     3     2    1
    12     3     4    1
    13     4     5    1
    14     5     6   am
    15     6     7    2
    16     6    37    1
    17    37    38    3
    18    38    39    1
    19    39    40    1
    20    40    41    1
    21     5     8    1
    22     8     9    1
    23     9    11    1
    24    11    12    2
    25    11    13   am
    26    13    14    1
    27    14    15    1
    28    15    16    1
    29    16    17   ar
    30    17    18   ar
    31    18    19   ar
    32    19    23    1
    33    23    24    1
    34    23    25    1
    35    23    26    1
    36    19    20   ar
    37    20    21   ar
    38    21    22    1
    39     9    10    1
    40    34    29    1
    41    10     1    1
    42     9     3    1
    43    22    13    1
    44    41    39    1
    45    21    16   ar
    46    27    28    1
@<TRIPOS>MOLECULE
*****
 41 46 0 0 0
SMALL
GASTEIGER

@<TRIPOS>ATOM
      1 C         142.8522  143.5095  163.3208 C.3     1  UNL1        0.0546
      2 C         142.1783  144.7625  162.8455 C.3     1  UNL1        0.0180
      3 C         141.8504  144.5896  161.3920 C.3     1  UNL1        0.0310
      4 C         141.2313  145.2571  160.1999 C.3     1  UNL1        0.0948
      5 N         141.3199  144.3099  159.0402 N.am    1  UNL1       -0.2690
      6 C         140.8220  144.5700  157.6493 C.2     1  UNL1        0.2923
      7 O         140.9811  143.5224  156.5876 O.2     1  UNL1       -0.2604
      8 C         141.9938  143.0569  159.5155 C.3     1  UNL1        0.1029
      9 C         142.3217  143.2298  160.9690 C.3     1  UNL1        0.0902
     10 C         142.9408  142.5623  162.1611 C.3     1  UNL1        0.0261
     11 C         142.7929  141.8700  160.5461 C.2     1  UNL1        0.2267
     12 O         143.7941  141.7344  159.4374 O.2     1  UNL1       -0.2748
     13 N         142.2629  140.6457  161.2319 N.am    1  UNL1       -0.2750
     14 C         142.7341  139.2859  160.8090 C.3     1  UNL1        0.1000
     15 C         142.2041  138.0617  161.4948 C.3     1  UNL1        0.0670
     16 C         141.2029  138.1973  162.6035 C.ar    1  UNL1        0.0583
     17 N         140.6729  136.9729  163.2893 N.ar    1  UNL1       -0.2484
     18 C         139.6717  137.1085  164.3980 C.ar    1  UNL1        0.1023
     19 C         139.2005  138.4684  164.8209 C.ar    1  UNL1        0.0902
     20 C         139.7305  139.6926  164.1351 C.ar    1  UNL1        0.0040
     21 C         140.7317  139.5570  163.0264 C.ar    1  UNL1        0.0113
     22 C         141.2617  140.7813  162.3406 C.3     1  UNL1        0.1213
     23 C         138.1993  138.6040  165.9296 C.3     1  UNL1        0.4200
     24 F         137.1981  138.7395  167.0383 F       1  UNL1       -0.1658
     25 F         138.1984  137.1150  166.1109 F       1  UNL1       -0.1658
     26 F         138.2002  140.0930  165.7483 F       1  UNL1       -0.1658
     27 N         143.3501  143.2494  164.7117 N.3     1  UNL1       -0.2975
     28 H         144.3418  143.0246  164.6322 H       1  UNL1        0.1232
     29 C         143.3458  140.8018  165.5829 C.3     1  UNL1        0.1591
     30 C         142.7215  139.7194  166.4128 C.3     1  UNL1        0.1729
     31 O         141.4773  140.0023  167.2014 O.3     1  UNL1       -0.3511
     32 C         140.8573  141.3676  167.1601 C.3     1  UNL1        0.1437
     33 C         141.4816  142.4500  166.3302 C.3     1  UNL1        0.0503
     34 C         142.7258  142.1671  165.5416 C.3     1  UNL1        0.0865
     35 C         144.6587  139.3092  163.9101 C.3     1  UNL1        0.1742
     36 O         144.5900  140.5190  164.7943 O.3     1  UNL1       -0.3496
     37 C         140.1650  145.8776  157.3202 C.1     1  UNL1       -0.0072
     38 C         139.5080  147.1852  156.9910 C.1     1  UNL1       -0.0831
     39 C         138.8509  148.4929  156.6619 C.3     1  UNL1        0.0646
     40 C         138.0885  149.7093  157.0966 C.3     1  UNL1        0.0140
     41 C         138.4753  149.5415  155.6572 C.3     1  UNL1        0.0140
@<TRIPOS>BOND
     1    35    36    1
     2    36    29    1
     3    29    30    1
     4    30    31    1
     5    31    32    1
     6    32    33    1
     7    33    34    1
     8    34    27    1
     9     1    27    1
    10     1     2    1
    11     3     2    1
    12     3     4    1
    13     4     5    1
    14     5     6   am
    15     6     7    2
    16     6    37    1
    17    37    38    3
    18    38    39    1
    19    39    40    1
    20    40    41    1
    21     5     8    1
    22     8     9    1
    23     9    11    1
    24    11    12    2
    25    11    13   am
    26    13    14    1
    27    14    15    1
    28    15    16    1
    29    16    17   ar
    30    17    18   ar
    31    18    19   ar
    32    19    23    1
    33    23    24    1
    34    23    25    1
    35    23    26    1
    36    19    20   ar
    37    20    21   ar
    38    21    22    1
    39     9    10    1
    40    34    29    1
    41    10     1    1
    42     9     3    1
    43    22    13    1
    44    41    39    1
    45    21    16   ar
    46    27    28    1
@<TRIPOS>MOLECULE
*****
 41 46 0 0 0
SMALL
GASTEIGER

@<TRIPOS>ATOM
      1 C         140.4689  143.9061  160.0086 C.3     1  UNL1        0.0546
      2 C         141.8329  144.2411  159.4822 C.3     1  UNL1        0.0180
      3 C         142.3219  143.0697  158.6829 C.3     1  UNL1        0.0310
      4 C         143.4671  142.5528  157.8636 C.3     1  UNL1        0.0948
      5 N         143.1130  141.1744  157.3897 N.am    1  UNL1       -0.2690
      6 C         143.9722  140.2868  156.5387 C.2     1  UNL1        0.2923
      7 O         143.4822  138.9259  156.1414 O.2     1  UNL1       -0.2604
      8 C         141.7490  140.8394  157.9161 C.3     1  UNL1        0.1029
      9 C         141.2600  142.0107  158.7153 C.3     1  UNL1        0.0902
     10 C         140.1148  142.5276  159.5346 C.3     1  UNL1        0.0261
     11 C         140.1982  140.9518  158.7478 C.2     1  UNL1        0.2267
     12 O         139.2657  140.7887  157.5842 O.2     1  UNL1       -0.2748
     13 N         140.0687  140.0558  159.9439 N.am    1  UNL1       -0.2750
     14 C         139.0069  138.9969  159.9764 C.3     1  UNL1        0.1000
     15 C         138.8774  138.1010  161.1724 C.3     1  UNL1        0.0670
     16 C         139.8099  138.2641  162.3360 C.ar    1  UNL1        0.0583
     17 N         139.6804  137.3681  163.5321 N.ar    1  UNL1       -0.2484
     18 C         140.6129  137.5312  164.6957 C.ar    1  UNL1        0.1023
     19 C         141.6747  138.5902  164.6632 C.ar    1  UNL1        0.0902
     20 C         141.8042  139.4861  163.4672 C.ar    1  UNL1        0.0040
     21 C         140.8717  139.3230  162.3036 C.ar    1  UNL1        0.0113
     22 C         141.0011  140.2189  161.1075 C.3     1  UNL1        0.1213
     23 C         142.6072  138.7532  165.8268 C.3     1  UNL1        0.4200
     24 F         143.5396  138.9163  166.9904 F       1  UNL1       -0.1658
     25 F         143.7673  138.3898  164.9482 F       1  UNL1       -0.1658
     26 F         141.4471  139.1167  166.7055 F       1  UNL1       -0.1658
     27 N         139.6097  144.7937  160.8595 N.3     1  UNL1       -0.2975
     28 H         140.0777  145.6987  160.9071 H       1  UNL1        0.1232
     29 C         140.2301  144.7533  163.3821 C.3     1  UNL1        0.1591
     30 C         139.9087  144.3573  164.7927 C.3     1  UNL1        0.1729
     31 O         138.6455  143.6055  165.0914 O.3     1  UNL1       -0.3511
     32 C         137.7036  143.2498  163.9794 C.3     1  UNL1        0.1437
     33 C         138.0250  143.6459  162.5688 C.3     1  UNL1        0.0503
     34 C         139.2883  144.3976  162.2701 C.3     1  UNL1        0.0865
     35 C         142.8118  144.7898  163.0932 C.3     1  UNL1        0.1742
     36 O         141.4932  145.5050  163.0834 O.3     1  UNL1       -0.3496
     37 C         145.3214  140.7601  156.0852 C.1     1  UNL1       -0.0072
     38 C         146.6705  141.2334  155.6317 C.1     1  UNL1       -0.0831
     39 C         148.0198  141.7068  155.1782 C.3     1  UNL1        0.0646
     40 C         149.5114  141.7218  155.3351 C.3     1  UNL1        0.0140
     41 C         148.8649  142.5115  154.2358 C.3     1  UNL1        0.0140
@<TRIPOS>BOND
     1    35    36    1
     2    36    29    1
     3    29    30    1
     4    30    31    1
     5    31    32    1
     6    32    33    1
     7    33    34    1
     8    34    27    1
     9     1    27    1
    10     1     2    1
    11     3     2    1
    12     3     4    1
    13     4     5    1
    14     5     6   am
    15     6     7    2
    16     6    37    1
    17    37    38    3
    18    38    39    1
    19    39    40    1
    20    40    41    1
    21     5     8    1
    22     8     9    1
    23     9    11    1
    24    11    12    2
    25    11    13   am
    26    13    14    1
    27    14    15    1
    28    15    16    1
    29    16    17   ar
    30    17    18   ar
    31    18    19   ar
    32    19    23    1
    33    23    24    1
    34    23    25    1
    35    23    26    1
    36    19    20   ar
    37    20    21   ar
    38    21    22    1
    39     9    10    1
    40    34    29    1
    41    10     1    1
    42     9     3    1
    43    22    13    1
    44    41    39    1
    45    21    16   ar
    46    27    28    1
@<TRIPOS>MOLECULE
*****
 41 46 0 0 0
SMALL
GASTEIGER

@<TRIPOS>ATOM
      1 C         139.4067  140.5530  158.6314 C.3     1  UNL1        0.0546
      2 C         139.2386  139.1433  158.1474 C.3     1  UNL1        0.0180
      3 C         140.5431  138.6975  157.5561 C.3     1  UNL1        0.0310
      4 C         141.2454  137.5508  156.8916 C.3     1  UNL1        0.0948
      5 N         142.6538  137.9763  156.5995 N.am    1  UNL1       -0.2690
      6 C         143.7089  137.1390  155.9393 C.2     1  UNL1        0.2923
      7 O         145.0803  137.7027  155.7119 O.2     1  UNL1       -0.2604
      8 C         142.8220  139.3860  157.0835 C.3     1  UNL1        0.1029
      9 C         141.5175  139.8318  157.6748 C.3     1  UNL1        0.0902
     10 C         140.8151  140.9786  158.3393 C.3     1  UNL1        0.0261
     11 C         142.4918  140.9661  157.7934 C.2     1  UNL1        0.2267
     12 O         142.7016  141.8986  156.6373 O.2     1  UNL1       -0.2748
     13 N         143.2563  141.1679  159.0681 N.am    1  UNL1       -0.2750
     14 C         144.2306  142.3022  159.1867 C.3     1  UNL1        0.1000
     15 C         144.9951  142.5039  160.4614 C.3     1  UNL1        0.0670
     16 C         144.7853  141.5714  161.6174 C.ar    1  UNL1        0.0583
     17 N         145.5498  141.7733  162.8921 N.ar    1  UNL1       -0.2484
     18 C         145.3400  140.8408  164.0482 C.ar    1  UNL1        0.1023
     19 C         144.3656  139.7065  163.9295 C.ar    1  UNL1        0.0902
     20 C         143.6011  139.5047  162.6548 C.ar    1  UNL1        0.0040
     21 C         143.8110  140.4372  161.4988 C.ar    1  UNL1        0.0113
     22 C         143.0465  140.2354  160.2241 C.3     1  UNL1        0.1213
     23 C         144.1558  138.7740  165.0855 C.3     1  UNL1        0.4200
     24 F         143.9459  137.8415  166.2416 F       1  UNL1       -0.1658
     25 F         145.6335  138.7598  165.3423 F       1  UNL1       -0.1658
     26 F         142.6780  138.7882  164.8288 F       1  UNL1       -0.1658
     27 N         138.3516  141.3904  159.2916 N.3     1  UNL1       -0.2975
     28 H         138.2387  142.2270  158.7192 H       1  UNL1        0.1232
     29 C         138.0381  141.0157  161.8433 C.3     1  UNL1        0.1591
     30 C         138.2254  141.4804  163.2572 C.3     1  UNL1        0.1729
     31 O         138.9133  142.7844  163.5332 O.3     1  UNL1       -0.3511
     32 C         139.4141  143.6238  162.3953 C.3     1  UNL1        0.1437
     33 C         139.2269  143.1591  160.9814 C.3     1  UNL1        0.0503
     34 C         138.5389  141.8550  160.7055 C.3     1  UNL1        0.0865
     35 C         138.1118  138.4240  161.6766 C.3     1  UNL1        0.1742
     36 O         137.3502  139.7117  161.5673 O.3     1  UNL1       -0.3496
     37 C         143.3926  135.7381  155.5065 C.1     1  UNL1       -0.0072
     38 C         143.0763  134.3372  155.0737 C.1     1  UNL1       -0.0831
     39 C         142.7600  132.9362  154.6409 C.3     1  UNL1        0.0646
     40 C         141.7595  131.8433  154.4075 C.3     1  UNL1        0.0140
     41 C         143.2127  131.6025  154.1248 C.3     1  UNL1        0.0140
@<TRIPOS>BOND
     1    35    36    1
     2    36    29    1
     3    29    30    1
     4    30    31    1
     5    31    32    1
     6    32    33    1
     7    33    34    1
     8    34    27    1
     9     1    27    1
    10     1     2    1
    11     3     2    1
    12     3     4    1
    13     4     5    1
    14     5     6   am
    15     6     7    2
    16     6    37    1
    17    37    38    3
    18    38    39    1
    19    39    40    1
    20    40    41    1
    21     5     8    1
    22     8     9    1
    23     9    11    1
    24    11    12    2
    25    11    13   am
    26    13    14    1
    27    14    15    1
    28    15    16    1
    29    16    17   ar
    30    17    18   ar
    31    18    19   ar
    32    19    23    1
    33    23    24    1
    34    23    25    1
    35    23    26    1
    36    19    20   ar
    37    20    21   ar
    38    21    22    1
    39     9    10    1
    40    34    29    1
    41    10     1    1
    42     9     3    1
    43    22    13    1
    44    41    39    1
    45    21    16   ar
    46    27    28    1
@<TRIPOS>MOLECULE
*****
 41 46 0 0 0
SMALL
GASTEIGER

@<TRIPOS>ATOM
      1 C         139.9622  140.2477  156.8812 C.3     1  UNL1        0.0546
      2 C         139.3734  139.0168  156.2582 C.3     1  UNL1        0.0180
      3 C         140.3759  137.9082  156.3849 C.3     1  UNL1        0.0310
      4 C         140.6316  136.4623  156.0782 C.3     1  UNL1        0.0948
      5 N         141.9980  136.1145  156.5901 N.am    1  UNL1       -0.2690
      6 C         142.6594  134.7715  156.4955 C.2     1  UNL1        0.2923
      7 O         144.0367  134.5727  157.0556 O.2     1  UNL1       -0.2604
      8 C         142.5868  137.3454  157.2131 C.3     1  UNL1        0.1029
      9 C         141.5843  138.4540  157.0863 C.3     1  UNL1        0.0902
     10 C         141.3287  139.8998  157.3930 C.3     1  UNL1        0.0261
     11 C         142.7927  138.9997  157.7877 C.2     1  UNL1        0.2267
     12 O         143.9658  139.4880  156.9906 O.2     1  UNL1       -0.2748
     13 N         142.8280  139.0573  159.2862 N.am    1  UNL1       -0.2750
     14 C         144.0363  139.6030  159.9876 C.3     1  UNL1        0.1000
     15 C         144.0716  139.6605  161.4860 C.3     1  UNL1        0.0670
     16 C         142.8984  139.1722  162.2831 C.ar    1  UNL1        0.0583
     17 N         142.9337  139.2297  163.7817 N.ar    1  UNL1       -0.2484
     18 C         141.7606  138.7415  164.5787 C.ar    1  UNL1        0.1023
     19 C         140.5522  138.1957  163.8773 C.ar    1  UNL1        0.0902
     20 C         140.5170  138.1382  162.3788 C.ar    1  UNL1        0.0040
     21 C         141.6901  138.6265  161.5818 C.ar    1  UNL1        0.0113
     22 C         141.6548  138.5690  160.0833 C.3     1  UNL1        0.1213
     23 C         139.3791  137.7074  164.6744 C.3     1  UNL1        0.4200
     24 F         138.2059  137.2191  165.4715 F       1  UNL1       -0.1658
     25 F         138.7819  137.1149  163.4325 F       1  UNL1       -0.1658
     26 F         139.9763  138.2999  165.9163 F       1  UNL1       -0.1658
     27 N         139.3008  141.5907  156.9758 N.3     1  UNL1       -0.2975
     28 H         139.7583  142.1931  156.2916 H       1  UNL1        0.1232
     29 C         138.5300  141.8011  159.4479 C.3     1  UNL1        0.1591
     30 C         138.5293  142.5467  160.7495 C.3     1  UNL1        0.1729
     31 O         139.2987  143.8276  160.8804 O.3     1  UNL1       -0.3511
     32 C         140.0689  144.3630  159.7098 C.3     1  UNL1        0.1437
     33 C         140.0696  143.6173  158.4082 C.3     1  UNL1        0.0503
     34 C         139.3001  142.3363  158.2773 C.3     1  UNL1        0.0865
     35 C         137.6729  139.5757  160.4791 C.3     1  UNL1        0.1742
     36 O         137.7606  140.5201  159.3170 O.3     1  UNL1       -0.3496
     37 C         141.9437  133.6274  155.8408 C.1     1  UNL1       -0.0072
     38 C         141.2279  132.4833  155.1861 C.1     1  UNL1       -0.0831
     39 C         140.5120  131.3392  154.5314 C.3     1  UNL1        0.0646
     40 C         139.8902  130.7218  153.3140 C.3     1  UNL1        0.0140
     41 C         139.8940  129.9750  154.6148 C.3     1  UNL1        0.0140
@<TRIPOS>BOND
     1    35    36    1
     2    36    29    1
     3    29    30    1
     4    30    31    1
     5    31    32    1
     6    32    33    1
     7    33    34    1
     8    34    27    1
     9     1    27    1
    10     1     2    1
    11     3     2    1
    12     3     4    1
    13     4     5    1
    14     5     6   am
    15     6     7    2
    16     6    37    1
    17    37    38    3
    18    38    39    1
    19    39    40    1
    20    40    41    1
    21     5     8    1
    22     8     9    1
    23     9    11    1
    24    11    12    2
    25    11    13   am
    26    13    14    1
    27    14    15    1
    28    15    16    1
    29    16    17   ar
    30    17    18   ar
    31    18    19   ar
    32    19    23    1
    33    23    24    1
    34    23    25    1
    35    23    26    1
    36    19    20   ar
    37    20    21   ar
    38    21    22    1
    39     9    10    1
    40    34    29    1
    41    10     1    1
    42     9     3    1
    43    22    13    1
    44    41    39    1
    45    21    16   ar
    46    27    28    1
@<TRIPOS>MOLECULE
*****
 41 46 0 0 0
SMALL
GASTEIGER

@<TRIPOS>ATOM
      1 C         142.7105  138.9646  164.1300 C.3     1  UNL1        0.0546
      2 C         141.6981  138.2576  164.9817 C.3     1  UNL1        0.0180
      3 C         141.2339  139.2139  166.0401 C.3     1  UNL1        0.0310
      4 C         140.3214  139.3680  167.2205 C.3     1  UNL1        0.0948
      5 N         140.4829  140.7611  167.7525 N.am    1  UNL1       -0.2690
      6 C         139.7590  141.3449  168.9296 C.2     1  UNL1        0.2923
      7 O         140.0254  142.7608  169.3470 O.2     1  UNL1       -0.2604
      8 C         141.4952  141.4681  166.9009 C.3     1  UNL1        0.1029
      9 C         141.9594  140.5119  165.8425 C.3     1  UNL1        0.0902
     10 C         142.8719  140.3578  164.6620 C.3     1  UNL1        0.0261
     11 C         142.6848  141.8098  165.6449 C.2     1  UNL1        0.2267
     12 O         143.6884  142.2702  166.6603 O.2     1  UNL1       -0.2748
     13 N         142.4068  142.6473  164.4319 N.am    1  UNL1       -0.2750
     14 C         143.1323  143.9453  164.2343 C.3     1  UNL1        0.1000
     15 C         142.8542  144.7827  163.0214 C.3     1  UNL1        0.0670
     16 C         141.8507  144.3223  162.0060 C.ar    1  UNL1        0.0583
     17 N         141.5726  145.1598  160.7930 N.ar    1  UNL1       -0.2484
     18 C         140.5691  144.6994  159.7777 C.ar    1  UNL1        0.1023
     19 C         139.8436  143.4014  159.9753 C.ar    1  UNL1        0.0902
     20 C         140.1217  142.5639  161.1883 C.ar    1  UNL1        0.0040
     21 C         141.1252  143.0244  162.2036 C.ar    1  UNL1        0.0113
     22 C         141.4033  142.1869  163.4166 C.3     1  UNL1        0.1213
     23 C         138.8401  142.9410  158.9600 C.3     1  UNL1        0.4200
     24 F         137.8366  142.4805  157.9446 F       1  UNL1       -0.1658
     25 F         138.3098  141.9365  159.9396 F       1  UNL1       -0.1658
     26 F         139.3704  143.9455  157.9803 F       1  UNL1       -0.1658
     27 N         143.4343  138.3809  162.9530 N.3     1  UNL1       -0.2975
     28 H         144.4236  138.5940  163.0804 H       1  UNL1        0.1232
     29 C         141.7839  138.3577  160.9465 C.3     1  UNL1        0.1591
     30 C         141.4239  138.7887  159.5556 C.3     1  UNL1        0.1729
     31 O         142.3541  139.6738  158.7802 O.3     1  UNL1       -0.3511
     32 C         143.6444  140.1279  159.3957 C.3     1  UNL1        0.1437
     33 C         144.0045  139.6970  160.7866 C.3     1  UNL1        0.0503
     34 C         143.0742  138.8118  161.5620 C.3     1  UNL1        0.0865
     35 C         139.4585  137.9330  162.0246 C.3     1  UNL1        0.1742
     36 O         140.8537  137.4726  161.7220 O.3     1  UNL1       -0.3496
     37 C         138.7689  140.5127  169.6892 C.1     1  UNL1       -0.0072
     38 C         137.7787  139.6805  170.4488 C.1     1  UNL1       -0.0831
     39 C         136.7885  138.8483  171.2084 C.3     1  UNL1        0.0646
     40 C         135.4238  138.6769  171.8069 C.3     1  UNL1        0.0140
     41 C         136.4382  137.5783  171.9257 C.3     1  UNL1        0.0140
@<TRIPOS>BOND
     1    35    36    1
     2    36    29    1
     3    29    30    1
     4    30    31    1
     5    31    32    1
     6    32    33    1
     7    33    34    1
     8    34    27    1
     9     1    27    1
    10     1     2    1
    11     3     2    1
    12     3     4    1
    13     4     5    1
    14     5     6   am
    15     6     7    2
    16     6    37    1
    17    37    38    3
    18    38    39    1
    19    39    40    1
    20    40    41    1
    21     5     8    1
    22     8     9    1
    23     9    11    1
    24    11    12    2
    25    11    13   am
    26    13    14    1
    27    14    15    1
    28    15    16    1
    29    16    17   ar
    30    17    18   ar
    31    18    19   ar
    32    19    23    1
    33    23    24    1
    34    23    25    1
    35    23    26    1
    36    19    20   ar
    37    20    21   ar
    38    21    22    1
    39     9    10    1
    40    34    29    1
    41    10     1    1
    42     9     3    1
    43    22    13    1
    44    41    39    1
    45    21    16   ar
    46    27    28    1
@<TRIPOS>MOLECULE
*****
 41 46 0 0 0
SMALL
GASTEIGER

@<TRIPOS>ATOM
      1 C         141.8643  138.3041  160.8103 C.3     1  UNL1        0.0546
      2 C         143.2445  138.3531  160.2250 C.3     1  UNL1        0.0180
      3 C         143.2888  139.4799  159.2359 C.3     1  UNL1        0.0310
      4 C         144.1692  140.2066  158.2629 C.3     1  UNL1        0.0948
      5 N         143.3605  141.3032  157.6355 N.am    1  UNL1       -0.2690
      6 C         143.8467  142.2776  156.6039 C.2     1  UNL1        0.2923
      7 O         142.9182  143.3255  156.0656 O.2     1  UNL1       -0.2604
      8 C         141.9803  141.2541  158.2208 C.3     1  UNL1        0.1029
      9 C         141.9360  140.1273  159.2099 C.3     1  UNL1        0.0902
     10 C         141.0556  139.4006  160.1829 C.3     1  UNL1        0.0261
     11 C         140.5831  140.7747  159.1838 C.2     1  UNL1        0.2267
     12 O         139.7842  140.7919  157.9144 O.2     1  UNL1       -0.2748
     13 N         140.0291  141.4049  160.4273 N.am    1  UNL1       -0.2750
     14 C         138.6763  142.0522  160.4012 C.3     1  UNL1        0.1000
     15 C         138.1224  142.6824  161.6446 C.3     1  UNL1        0.0670
     16 C         138.9213  142.6651  162.9141 C.ar    1  UNL1        0.0583
     17 N         138.3673  143.2953  164.1575 N.ar    1  UNL1       -0.2484
     18 C         139.1663  143.2781  165.4269 C.ar    1  UNL1        0.1023
     19 C         140.5192  142.6307  165.4529 C.ar    1  UNL1        0.0902
     20 C         141.0731  142.0005  164.2095 C.ar    1  UNL1        0.0040
     21 C         140.2742  142.0178  162.9401 C.ar    1  UNL1        0.0113
     22 C         140.8281  141.3876  161.6967 C.3     1  UNL1        0.1213
     23 C         141.3181  142.6134  166.7223 C.3     1  UNL1        0.4200
     24 F         142.1170  142.5962  167.9917 F       1  UNL1       -0.1658
     25 F         142.4370  141.9144  166.0086 F       1  UNL1       -0.1658
     26 F         140.1992  143.3125  167.4360 F       1  UNL1       -0.1658
     27 N         141.3781  137.3296  161.8419 N.3     1  UNL1       -0.2975
     28 H         140.5870  136.8349  161.4298 H       1  UNL1        0.1232
     29 C         139.4656  137.9836  163.4742 C.3     1  UNL1        0.1591
     30 C         139.0161  138.4759  164.8179 C.3     1  UNL1        0.1729
     31 O         140.0297  138.8065  165.8731 O.3     1  UNL1       -0.3511
     32 C         141.4928  138.6448  165.5845 C.3     1  UNL1        0.1437
     33 C         141.9423  138.1525  164.2408 C.3     1  UNL1        0.0503
     34 C         140.9286  137.8219  163.1856 C.3     1  UNL1        0.0865
     35 C         137.7261  138.7545  161.7050 C.3     1  UNL1        0.1742
     36 O         138.4520  137.6530  162.4191 O.3     1  UNL1       -0.3496
     37 C         145.2614  142.2042  156.1107 C.1     1  UNL1       -0.0072
     38 C         146.6760  142.1307  155.6175 C.1     1  UNL1       -0.0831
     39 C         148.0908  142.0573  155.1243 C.3     1  UNL1        0.0646
     40 C         149.1043  142.2974  154.0450 C.3     1  UNL1        0.0140
     41 C         149.5276  141.6899  155.3495 C.3     1  UNL1        0.0140
@<TRIPOS>BOND
     1    35    36    1
     2    36    29    1
     3    29    30    1
     4    30    31    1
     5    31    32    1
     6    32    33    1
     7    33    34    1
     8    34    27    1
     9     1    27    1
    10     1     2    1
    11     3     2    1
    12     3     4    1
    13     4     5    1
    14     5     6   am
    15     6     7    2
    16     6    37    1
    17    37    38    3
    18    38    39    1
    19    39    40    1
    20    40    41    1
    21     5     8    1
    22     8     9    1
    23     9    11    1
    24    11    12    2
    25    11    13   am
    26    13    14    1
    27    14    15    1
    28    15    16    1
    29    16    17   ar
    30    17    18   ar
    31    18    19   ar
    32    19    23    1
    33    23    24    1
    34    23    25    1
    35    23    26    1
    36    19    20   ar
    37    20    21   ar
    38    21    22    1
    39     9    10    1
    40    34    29    1
    41    10     1    1
    42     9     3    1
    43    22    13    1
    44    41    39    1
    45    21    16   ar
    46    27    28    1
