@<TRIPOS>MOLECULE
*****
 30 34 0 0 0
SMALL
GASTEIGER

@<TRIPOS>ATOM
      1 N         141.7447  138.3686  158.7663 N.pl3   1  UNL1       -0.2781
      2 C         140.4865  139.1648  158.5853 C.3     1  UNL1        0.0954
      3 C         139.9646  139.5224  159.9454 C.3     1  UNL1        0.0430
      4 C         138.8645  140.2355  160.6741 C.3     1  UNL1        0.0955
      5 N         139.1202  140.1010  162.1461 N.am    1  UNL1       -0.2759
      6 C         138.2675  140.6639  163.2442 C.2     1  UNL1        0.2505
      7 O         137.0307  141.4435  162.9087 O.2     1  UNL1       -0.2699
      8 C         140.3786  139.3047  162.3270 C.3     1  UNL1        0.0955
      9 C         140.9004  138.9472  160.9669 C.3     1  UNL1        0.0430
     10 C         142.0006  138.2341  160.2381 C.3     1  UNL1        0.0954
     11 C         145.0032  139.0849  154.7826 C.3     1  UNL1        0.0522
     12 C         144.2267  138.1638  155.6763 C.ar    1  UNL1        0.0634
     13 C         144.3030  136.6798  155.4718 C.ar    1  UNL1        0.0296
     14 C         143.5266  135.7586  156.3655 C.ar    1  UNL1        0.0634
     15 C         143.6028  134.2746  156.1611 C.3     1  UNL1        0.0522
     16 N         142.6738  136.3217  157.4636 N.ar    1  UNL1       -0.2180
     17 C         142.5975  137.8057  157.6681 C.ar    1  UNL1        0.2195
     18 N         143.3740  138.7268  156.7744 N.ar    1  UNL1       -0.2180
     19 C         138.6515  140.4472  164.6779 C.ar    1  UNL1        0.0731
     20 C         138.1188  139.2612  165.4260 C.ar    1  UNL1        0.0084
     21 C         138.5028  139.0445  166.8598 C.ar    1  UNL1        0.0299
     22 C         139.4195  140.0137  167.5454 C.ar    1  UNL1        0.1417
     23 F         139.8035  139.7970  168.9791 F       1  UNL1       -0.2041
     24 C         139.9523  141.1997  166.7974 C.ar    1  UNL1        0.0507
     25 C         139.5683  141.4164  165.3636 C.ar    1  UNL1        0.1095
     26 N         140.1011  142.6024  164.6155 N.ar    1  UNL1       -0.1476
     27 N         141.3722  142.6449  163.8203 N.ar    1  UNL1       -0.1447
     28 C         141.5130  144.0228  163.2447 C.ar    1  UNL1        0.1446
     29 C         140.3288  144.8320  163.6841 C.ar    1  UNL1        0.1446
     30 N         139.4563  143.9541  164.5313 N.ar    1  UNL1       -0.1447
@<TRIPOS>BOND
     1    11    12    1
     2    12    13   ar
     3    13    14   ar
     4    14    15    1
     5    14    16   ar
     6    16    17   ar
     7    17     1    1
     8     1     2    1
     9     3     2    1
    10     3     4    1
    11     4     5    1
    12     5     6   am
    13     6     7    2
    14     6    19    1
    15    19    20   ar
    16    20    21   ar
    17    21    22   ar
    18    22    23    1
    19    22    24   ar
    20    24    25   ar
    21    25    26    1
    22    26    27   ar
    23    27    28   ar
    24    28    29   ar
    25    29    30   ar
    26     5     8    1
    27     9     8    1
    28     9    10    1
    29    17    18   ar
    30    18    12   ar
    31    10     1    1
    32     9     3    1
    33    25    19   ar
    34    30    26   ar
@<TRIPOS>MOLECULE
*****
 30 34 0 0 0
SMALL
GASTEIGER

@<TRIPOS>ATOM
      1 N         139.5154  142.6772  161.4341 N.pl3   1  UNL1       -0.2781
      2 C         138.7746  141.5325  162.0593 C.3     1  UNL1        0.0954
      3 C         139.1734  141.4558  163.5033 C.3     1  UNL1        0.0430
      4 C         138.9621  140.7009  164.7821 C.3     1  UNL1        0.0955
      5 N         139.8187  141.3316  165.8398 N.am    1  UNL1       -0.2759
      6 C         139.9172  140.8944  167.2712 C.2     1  UNL1        0.2505
      7 O         139.1115  139.7255  167.7556 O.2     1  UNL1       -0.2699
      8 C         140.5595  142.4763  165.2145 C.3     1  UNL1        0.0955
      9 C         140.1607  142.5530  163.7705 C.3     1  UNL1        0.0430
     10 C         140.3720  143.3079  162.4916 C.3     1  UNL1        0.0954
     11 C         141.0033  145.8264  157.5781 C.3     1  UNL1        0.0522
     12 C         140.1608  144.6890  158.0746 C.ar    1  UNL1        0.0634
     13 C         139.2198  143.9888  157.1396 C.ar    1  UNL1        0.0296
     14 C         138.3773  142.8514  157.6361 C.ar    1  UNL1        0.0634
     15 C         137.4363  142.1512  156.7012 C.3     1  UNL1        0.0522
     16 N         138.4759  142.4143  159.0676 N.ar    1  UNL1       -0.2180
     17 C         139.4169  143.1144  160.0026 C.ar    1  UNL1        0.2195
     18 N         140.2594  144.2518  159.5061 N.ar    1  UNL1       -0.2180
     19 C         140.8214  141.6260  168.2183 C.ar    1  UNL1        0.0731
     20 C         140.2635  142.6889  169.1177 C.ar    1  UNL1        0.0084
     21 C         141.1678  143.4206  170.0649 C.ar    1  UNL1        0.0299
     22 C         142.6298  143.0893  170.1127 C.ar    1  UNL1        0.1417
     23 F         143.5341  143.8209  171.0598 F       1  UNL1       -0.2041
     24 C         143.1879  142.0264  169.2133 C.ar    1  UNL1        0.0507
     25 C         142.2837  141.2947  168.2661 C.ar    1  UNL1        0.1095
     26 N         142.8416  140.2318  167.3668 N.ar    1  UNL1       -0.1476
     27 N         143.1526  138.8181  167.7600 N.ar    1  UNL1       -0.1447
     28 C         143.6897  138.1085  166.5525 C.ar    1  UNL1        0.1446
     29 C         143.7107  139.0838  165.4130 C.ar    1  UNL1        0.1446
     30 N         143.1866  140.3960  165.9163 N.ar    1  UNL1       -0.1447
@<TRIPOS>BOND
     1    11    12    1
     2    12    13   ar
     3    13    14   ar
     4    14    15    1
     5    14    16   ar
     6    16    17   ar
     7    17     1    1
     8     1     2    1
     9     3     2    1
    10     3     4    1
    11     4     5    1
    12     5     6   am
    13     6     7    2
    14     6    19    1
    15    19    20   ar
    16    20    21   ar
    17    21    22   ar
    18    22    23    1
    19    22    24   ar
    20    24    25   ar
    21    25    26    1
    22    26    27   ar
    23    27    28   ar
    24    28    29   ar
    25    29    30   ar
    26     5     8    1
    27     9     8    1
    28     9    10    1
    29    17    18   ar
    30    18    12   ar
    31    10     1    1
    32     9     3    1
    33    25    19   ar
    34    30    26   ar
@<TRIPOS>MOLECULE
*****
 30 34 0 0 0
SMALL
GASTEIGER

@<TRIPOS>ATOM
      1 N         137.9728  140.6678  158.6223 N.pl3   1  UNL1       -0.2781
      2 C         138.8916  139.4827  158.6591 C.3     1  UNL1        0.0954
      3 C         139.2069  139.1852  160.0951 C.3     1  UNL1        0.0430
      4 C         139.9697  138.2689  161.0053 C.3     1  UNL1        0.0955
      5 N         139.7173  138.7038  162.4186 N.am    1  UNL1       -0.2759
      6 C         140.2841  138.0657  163.6520 C.2     1  UNL1        0.2505
      7 O         141.1944  136.8795  163.5321 O.2     1  UNL1       -0.2699
      8 C         138.7984  139.8889  162.3817 C.3     1  UNL1        0.0955
      9 C         138.4831  140.1864  160.9457 C.3     1  UNL1        0.0430
     10 C         137.7203  141.1027  160.0355 C.3     1  UNL1        0.0954
     11 C         134.7685  140.4993  154.5352 C.3     1  UNL1        0.0522
     12 C         135.8038  141.2218  155.3453 C.ar    1  UNL1        0.0634
     13 C         136.2723  142.5823  154.9219 C.ar    1  UNL1        0.0296
     14 C         137.3076  143.3048  155.7319 C.ar    1  UNL1        0.0634
     15 C         137.7761  144.6654  155.3086 C.3     1  UNL1        0.0522
     16 N         137.8744  142.6665  156.9654 N.ar    1  UNL1       -0.2180
     17 C         137.4059  141.3059  157.3888 C.ar    1  UNL1        0.2195
     18 N         136.3706  140.5835  156.5788 N.ar    1  UNL1       -0.2180
     19 C         139.9406  138.6136  165.0054 C.ar    1  UNL1        0.0731
     20 C         138.5849  138.3603  165.5951 C.ar    1  UNL1        0.0084
     21 C         138.2414  138.9083  166.9486 C.ar    1  UNL1        0.0299
     22 C         139.2535  139.7096  167.7123 C.ar    1  UNL1        0.1417
     23 F         138.9101  140.2575  169.0657 F       1  UNL1       -0.2041
     24 C         140.6094  139.9630  167.1226 C.ar    1  UNL1        0.0507
     25 C         140.9528  139.4150  165.7692 C.ar    1  UNL1        0.1095
     26 N         142.3086  139.6683  165.1795 N.ar    1  UNL1       -0.1476
     27 N         143.5068  138.7751  165.3077 N.ar    1  UNL1       -0.1447
     28 C         144.6429  139.4141  164.5655 C.ar    1  UNL1        0.1446
     29 C         144.1468  140.7023  163.9785 C.ar    1  UNL1        0.1446
     30 N         142.7042  140.8594  164.3580 N.ar    1  UNL1       -0.1447
@<TRIPOS>BOND
     1    11    12    1
     2    12    13   ar
     3    13    14   ar
     4    14    15    1
     5    14    16   ar
     6    16    17   ar
     7    17     1    1
     8     1     2    1
     9     3     2    1
    10     3     4    1
    11     4     5    1
    12     5     6   am
    13     6     7    2
    14     6    19    1
    15    19    20   ar
    16    20    21   ar
    17    21    22   ar
    18    22    23    1
    19    22    24   ar
    20    24    25   ar
    21    25    26    1
    22    26    27   ar
    23    27    28   ar
    24    28    29   ar
    25    29    30   ar
    26     5     8    1
    27     9     8    1
    28     9    10    1
    29    17    18   ar
    30    18    12   ar
    31    10     1    1
    32     9     3    1
    33    25    19   ar
    34    30    26   ar
@<TRIPOS>MOLECULE
*****
 30 34 0 0 0
SMALL
GASTEIGER

@<TRIPOS>ATOM
      1 N         140.6636  144.5718  158.8694 N.pl3   1  UNL1       -0.2781
      2 C         141.1773  145.2725  160.0922 C.3     1  UNL1        0.0954
      3 C         140.9811  144.3597  161.2662 C.3     1  UNL1        0.0430
      4 C         141.1774  144.2286  162.7475 C.3     1  UNL1        0.0955
      5 N         140.6637  142.8828  163.1659 N.am    1  UNL1       -0.2759
      6 C         140.6638  142.3341  164.5619 C.2     1  UNL1        0.2505
      7 O         141.2137  143.1550  165.6905 O.2     1  UNL1       -0.2699
      8 C         140.1500  142.1821  161.9431 C.3     1  UNL1        0.0955
      9 C         140.3462  143.0949  160.7691 C.3     1  UNL1        0.0430
     10 C         140.1499  143.2260  159.2878 C.3     1  UNL1        0.0954
     11 C         139.0273  148.0962  155.4197 C.3     1  UNL1        0.0522
     12 C         139.8454  146.8828  155.7485 C.ar    1  UNL1        0.0634
     13 C         140.6634  146.2180  154.6813 C.ar    1  UNL1        0.0296
     14 C         141.4815  145.0046  155.0101 C.ar    1  UNL1        0.0634
     15 C         142.2996  144.3398  153.9430 C.3     1  UNL1        0.0522
     16 N         141.4815  144.4559  156.4062 N.ar    1  UNL1       -0.2180
     17 C         140.6635  145.1206  157.4734 C.ar    1  UNL1        0.2195
     18 N         139.8454  146.3341  157.1446 N.ar    1  UNL1       -0.2180
     19 C         140.1140  140.9644  164.8293 C.ar    1  UNL1        0.0731
     20 C         138.6928  140.8017  165.2807 C.ar    1  UNL1        0.0084
     21 C         138.1429  139.4319  165.5482 C.ar    1  UNL1        0.0299
     22 C         139.0142  138.2249  165.3643 C.ar    1  UNL1        0.1417
     23 F         138.4644  136.8552  165.6318 F       1  UNL1       -0.2041
     24 C         140.4355  138.3875  164.9129 C.ar    1  UNL1        0.0507
     25 C         140.9853  139.7572  164.6455 C.ar    1  UNL1        0.1095
     26 N         142.4065  139.9199  164.1941 N.ar    1  UNL1       -0.1476
     27 N         143.5914  140.1609  165.0818 N.ar    1  UNL1       -0.1447
     28 C         144.8095  140.2601  164.2121 C.ar    1  UNL1        0.1446
     29 C         144.3775  140.0805  162.7870 C.ar    1  UNL1        0.1446
     30 N         142.8924  139.8702  162.7759 N.ar    1  UNL1       -0.1447
@<TRIPOS>BOND
     1    11    12    1
     2    12    13   ar
     3    13    14   ar
     4    14    15    1
     5    14    16   ar
     6    16    17   ar
     7    17     1    1
     8     1     2    1
     9     3     2    1
    10     3     4    1
    11     4     5    1
    12     5     6   am
    13     6     7    2
    14     6    19    1
    15    19    20   ar
    16    20    21   ar
    17    21    22   ar
    18    22    23    1
    19    22    24   ar
    20    24    25   ar
    21    25    26    1
    22    26    27   ar
    23    27    28   ar
    24    28    29   ar
    25    29    30   ar
    26     5     8    1
    27     9     8    1
    28     9    10    1
    29    17    18   ar
    30    18    12   ar
    31    10     1    1
    32     9     3    1
    33    25    19   ar
    34    30    26   ar
@<TRIPOS>MOLECULE
*****
 30 34 0 0 0
SMALL
GASTEIGER

@<TRIPOS>ATOM
      1 N         140.8007  138.8696  159.5806 N.pl3   1  UNL1       -0.2781
      2 C         140.4323  140.3129  159.7570 C.3     1  UNL1        0.0954
      3 C         140.4827  140.6283  161.2226 C.3     1  UNL1        0.0430
      4 C         140.2861  141.7153  162.2374 C.3     1  UNL1        0.0955
      5 N         140.5642  141.1388  163.5940 N.am    1  UNL1       -0.2759
      6 C         140.4873  141.8761  164.8979 C.2     1  UNL1        0.2505
      7 O         140.1029  143.3259  164.9183 O.2     1  UNL1       -0.2699
      8 C         140.9326  139.6954  163.4176 C.3     1  UNL1        0.0955
      9 C         140.8822  139.3800  161.9520 C.3     1  UNL1        0.0430
     10 C         141.0787  138.2930  160.9372 C.3     1  UNL1        0.0954
     11 C         143.5155  136.0681  156.1483 C.3     1  UNL1        0.0522
     12 C         142.2349  136.7315  156.5604 C.ar    1  UNL1        0.0634
     13 C         141.0311  136.6575  155.6686 C.ar    1  UNL1        0.0296
     14 C         139.7505  137.3209  156.0807 C.ar    1  UNL1        0.0634
     15 C         138.5467  137.2471  155.1889 C.3     1  UNL1        0.0522
     16 N         139.6737  138.0583  157.3848 N.ar    1  UNL1       -0.2180
     17 C         140.8775  138.1322  158.2766 C.ar    1  UNL1        0.2195
     18 N         142.1581  137.4688  157.8645 N.ar    1  UNL1       -0.2180
     19 C         140.7949  141.1637  166.1816 C.ar    1  UNL1        0.0731
     20 C         139.6775  140.6994  167.0681 C.ar    1  UNL1        0.0084
     21 C         139.9851  139.9870  168.3518 C.ar    1  UNL1        0.0299
     22 C         141.4100  139.7388  168.7491 C.ar    1  UNL1        0.1417
     23 F         141.7176  139.0264  170.0327 F       1  UNL1       -0.2041
     24 C         142.5275  140.2031  167.8626 C.ar    1  UNL1        0.0507
     25 C         142.2199  140.9155  166.5789 C.ar    1  UNL1        0.1095
     26 N         143.3374  141.3797  165.6925 N.ar    1  UNL1       -0.1476
     27 N         143.8417  142.7874  165.5735 N.ar    1  UNL1       -0.1447
     28 C         144.9627  142.7955  164.5768 C.ar    1  UNL1        0.1446
     29 C         145.1512  141.3928  164.0799 C.ar    1  UNL1        0.1446
     30 N         144.1467  140.5179  164.7694 N.ar    1  UNL1       -0.1447
@<TRIPOS>BOND
     1    11    12    1
     2    12    13   ar
     3    13    14   ar
     4    14    15    1
     5    14    16   ar
     6    16    17   ar
     7    17     1    1
     8     1     2    1
     9     3     2    1
    10     3     4    1
    11     4     5    1
    12     5     6   am
    13     6     7    2
    14     6    19    1
    15    19    20   ar
    16    20    21   ar
    17    21    22   ar
    18    22    23    1
    19    22    24   ar
    20    24    25   ar
    21    25    26    1
    22    26    27   ar
    23    27    28   ar
    24    28    29   ar
    25    29    30   ar
    26     5     8    1
    27     9     8    1
    28     9    10    1
    29    17    18   ar
    30    18    12   ar
    31    10     1    1
    32     9     3    1
    33    25    19   ar
    34    30    26   ar
@<TRIPOS>MOLECULE
*****
 30 34 0 0 0
SMALL
GASTEIGER

@<TRIPOS>ATOM
      1 N         140.0547  139.2930  158.4848 N.pl3   1  UNL1       -0.2781
      2 C         138.8957  140.0463  159.0673 C.3     1  UNL1        0.0954
      3 C         139.4025  140.8533  160.2257 C.3     1  UNL1        0.0430
      4 C         138.9994  141.8176  161.3016 C.3     1  UNL1        0.0955
      5 N         140.2225  142.1590  162.1001 N.am    1  UNL1       -0.2759
      6 C         140.2771  143.0902  163.2747 C.2     1  UNL1        0.2505
      7 O         139.0293  143.7764  163.7465 O.2     1  UNL1       -0.2699
      8 C         141.3815  141.4057  161.5176 C.3     1  UNL1        0.0955
      9 C         140.8747  140.5987  160.3592 C.3     1  UNL1        0.0430
     10 C         141.2778  139.6344  159.2833 C.3     1  UNL1        0.0954
     11 C         142.1266  135.4135  155.7178 C.3     1  UNL1        0.0522
     12 C         141.0361  136.4220  155.9266 C.ar    1  UNL1        0.0634
     13 C         139.8911  136.4993  154.9608 C.ar    1  UNL1        0.0296
     14 C         138.8005  137.5078  155.1696 C.ar    1  UNL1        0.0634
     15 C         137.6555  137.5852  154.2038 C.3     1  UNL1        0.0522
     16 N         138.8551  138.4391  156.3443 N.ar    1  UNL1       -0.2180
     17 C         140.0002  138.3618  157.3102 C.ar    1  UNL1        0.2195
     18 N         141.0907  137.3532  157.1013 N.ar    1  UNL1       -0.2180
     19 C         141.5793  143.3354  163.9776 C.ar    1  UNL1        0.0731
     20 C         142.4607  144.4708  163.5491 C.ar    1  UNL1        0.0084
     21 C         143.7630  144.7160  164.2520 C.ar    1  UNL1        0.0299
     22 C         144.1837  143.8258  165.3835 C.ar    1  UNL1        0.1417
     23 F         145.4859  144.0709  166.0865 F       1  UNL1       -0.2041
     24 C         143.3023  142.6902  165.8122 C.ar    1  UNL1        0.0507
     25 C         142.0001  142.4451  165.1092 C.ar    1  UNL1        0.1095
     26 N         141.1186  141.3096  165.5378 N.ar    1  UNL1       -0.1476
     27 N         141.1471  139.9148  164.9868 N.ar    1  UNL1       -0.1447
     28 C         140.0999  139.1127  165.7011 C.ar    1  UNL1        0.1446
     29 C         139.4243  140.0119  166.6935 C.ar    1  UNL1        0.1446
     30 N         140.0538  141.3696  166.5926 N.ar    1  UNL1       -0.1447
@<TRIPOS>BOND
     1    11    12    1
     2    12    13   ar
     3    13    14   ar
     4    14    15    1
     5    14    16   ar
     6    16    17   ar
     7    17     1    1
     8     1     2    1
     9     3     2    1
    10     3     4    1
    11     4     5    1
    12     5     6   am
    13     6     7    2
    14     6    19    1
    15    19    20   ar
    16    20    21   ar
    17    21    22   ar
    18    22    23    1
    19    22    24   ar
    20    24    25   ar
    21    25    26    1
    22    26    27   ar
    23    27    28   ar
    24    28    29   ar
    25    29    30   ar
    26     5     8    1
    27     9     8    1
    28     9    10    1
    29    17    18   ar
    30    18    12   ar
    31    10     1    1
    32     9     3    1
    33    25    19   ar
    34    30    26   ar
@<TRIPOS>MOLECULE
*****
 30 34 0 0 0
SMALL
GASTEIGER

@<TRIPOS>ATOM
      1 N         142.4108  138.8870  159.1239 N.pl3   1  UNL1       -0.2781
      2 C         141.0055  138.4730  159.4460 C.3     1  UNL1        0.0954
      3 C         140.7017  138.9147  160.8469 C.3     1  UNL1        0.0430
      4 C         139.6455  138.9317  161.9118 C.3     1  UNL1        0.0955
      5 N         140.2102  139.6292  163.1138 N.am    1  UNL1       -0.2759
      6 C         139.4952  139.8704  164.4101 C.2     1  UNL1        0.2505
      7 O         138.0832  139.3961  164.5874 O.2     1  UNL1       -0.2699
      8 C         141.6155  140.0432  162.7917 C.3     1  UNL1        0.0955
      9 C         141.9193  139.6016  161.3907 C.3     1  UNL1        0.0430
     10 C         142.9756  139.5845  160.3259 C.3     1  UNL1        0.0954
     11 C         143.7184  135.7044  155.2303 C.3     1  UNL1        0.0522
     12 C         143.7797  137.0546  155.8807 C.ar    1  UNL1        0.0634
     13 C         144.5560  138.1637  155.2348 C.ar    1  UNL1        0.0296
     14 C         144.6173  139.5139  155.8853 C.ar    1  UNL1        0.0634
     15 C         145.3936  140.6230  155.2395 C.3     1  UNL1        0.0522
     16 N         143.9022  139.7550  157.1817 N.ar    1  UNL1       -0.2180
     17 C         143.1259  138.6459  157.8276 C.ar    1  UNL1        0.2195
     18 N         143.0646  137.2957  157.1771 N.ar    1  UNL1       -0.2180
     19 C         140.1921  140.5858  165.5292 C.ar    1  UNL1        0.0731
     20 C         140.9134  139.8028  166.5859 C.ar    1  UNL1        0.0084
     21 C         141.6103  140.5182  167.7051 C.ar    1  UNL1        0.0299
     22 C         141.5859  142.0166  167.7676 C.ar    1  UNL1        0.1417
     23 F         142.2828  142.7321  168.8867 F       1  UNL1       -0.2041
     24 C         140.8646  142.7998  166.7109 C.ar    1  UNL1        0.0507
     25 C         140.1677  142.0844  165.5918 C.ar    1  UNL1        0.1095
     26 N         139.4464  142.8674  164.5351 N.ar    1  UNL1       -0.1476
     27 N         137.9947  143.2444  164.5539 N.ar    1  UNL1       -0.1447
     28 C         137.7013  144.0210  163.3045 C.ar    1  UNL1        0.1446
     29 C         138.9716  144.1239  162.5136 C.ar    1  UNL1        0.1446
     30 N         140.0501  143.4109  163.2741 N.ar    1  UNL1       -0.1447
@<TRIPOS>BOND
     1    11    12    1
     2    12    13   ar
     3    13    14   ar
     4    14    15    1
     5    14    16   ar
     6    16    17   ar
     7    17     1    1
     8     1     2    1
     9     3     2    1
    10     3     4    1
    11     4     5    1
    12     5     6   am
    13     6     7    2
    14     6    19    1
    15    19    20   ar
    16    20    21   ar
    17    21    22   ar
    18    22    23    1
    19    22    24   ar
    20    24    25   ar
    21    25    26    1
    22    26    27   ar
    23    27    28   ar
    24    28    29   ar
    25    29    30   ar
    26     5     8    1
    27     9     8    1
    28     9    10    1
    29    17    18   ar
    30    18    12   ar
    31    10     1    1
    32     9     3    1
    33    25    19   ar
    34    30    26   ar
@<TRIPOS>MOLECULE
*****
 30 34 0 0 0
SMALL
GASTEIGER

@<TRIPOS>ATOM
      1 N         141.4593  138.2936  158.1552 N.pl3   1  UNL1       -0.2781
      2 C         140.1708  138.9764  158.5070 C.3     1  UNL1        0.0954
      3 C         140.4377  139.9085  159.6515 C.3     1  UNL1        0.0430
      4 C         139.8064  140.9066  160.5762 C.3     1  UNL1        0.0955
      5 N         140.8695  141.4168  161.5034 N.am    1  UNL1       -0.2759
      6 C         140.6779  142.4315  162.5912 C.2     1  UNL1        0.2505
      7 O         139.3234  143.0314  162.8273 O.2     1  UNL1       -0.2699
      8 C         142.1580  140.7340  161.1515 C.3     1  UNL1        0.0955
      9 C         141.8911  139.8019  160.0070 C.3     1  UNL1        0.0430
     10 C         142.5225  138.8038  159.0822 C.3     1  UNL1        0.0954
     11 C         140.1490  136.3786  153.5059 C.3     1  UNL1        0.0522
     12 C         140.9959  136.3213  154.7427 C.ar    1  UNL1        0.0634
     13 C         142.0343  135.2492  154.8916 C.ar    1  UNL1        0.0296
     14 C         142.8812  135.1919  156.1283 C.ar    1  UNL1        0.0634
     15 C         143.9197  134.1199  156.2773 C.3     1  UNL1        0.0522
     16 N         142.6894  136.2068  157.2162 N.ar    1  UNL1       -0.2180
     17 C         141.6509  137.2788  157.0673 C.ar    1  UNL1        0.2195
     18 N         140.8041  137.3361  155.8305 N.ar    1  UNL1       -0.2180
     19 C         141.8407  142.8466  163.4430 C.ar    1  UNL1        0.0731
     20 C         142.5928  144.1046  163.1240 C.ar    1  UNL1        0.0084
     21 C         143.7557  144.5196  163.9759 C.ar    1  UNL1        0.0299
     22 C         144.1663  143.6768  165.1467 C.ar    1  UNL1        0.1417
     23 F         145.3291  144.0918  165.9985 F       1  UNL1       -0.2041
     24 C         143.4142  142.4187  165.4657 C.ar    1  UNL1        0.0507
     25 C         142.2514  142.0037  164.6139 C.ar    1  UNL1        0.1095
     26 N         141.4993  140.7457  164.9328 N.ar    1  UNL1       -0.1476
     27 N         141.8615  139.3627  164.4788 N.ar    1  UNL1       -0.1447
     28 C         140.8390  138.4121  165.0272 C.ar    1  UNL1        0.1446
     29 C         139.8448  139.2075  165.8201 C.ar    1  UNL1        0.1446
     30 N         140.2529  140.6497  165.7618 N.ar    1  UNL1       -0.1447
@<TRIPOS>BOND
     1    11    12    1
     2    12    13   ar
     3    13    14   ar
     4    14    15    1
     5    14    16   ar
     6    16    17   ar
     7    17     1    1
     8     1     2    1
     9     3     2    1
    10     3     4    1
    11     4     5    1
    12     5     6   am
    13     6     7    2
    14     6    19    1
    15    19    20   ar
    16    20    21   ar
    17    21    22   ar
    18    22    23    1
    19    22    24   ar
    20    24    25   ar
    21    25    26    1
    22    26    27   ar
    23    27    28   ar
    24    28    29   ar
    25    29    30   ar
    26     5     8    1
    27     9     8    1
    28     9    10    1
    29    17    18   ar
    30    18    12   ar
    31    10     1    1
    32     9     3    1
    33    25    19   ar
    34    30    26   ar
@<TRIPOS>MOLECULE
*****
 30 34 0 0 0
SMALL
GASTEIGER

@<TRIPOS>ATOM
      1 N         138.7868  141.0024  158.8635 N.pl3   1  UNL1       -0.2781
      2 C         138.4210  142.3826  159.3232 C.3     1  UNL1        0.0954
      3 C         138.9108  142.5470  160.7314 C.3     1  UNL1        0.0430
      4 C         138.9875  143.5017  161.8858 C.3     1  UNL1        0.0955
      5 N         139.7033  142.8132  163.0100 N.am    1  UNL1       -0.2759
      6 C         140.0011  143.4015  164.3572 C.2     1  UNL1        0.2505
      7 O         139.5711  144.8030  164.6753 O.2     1  UNL1       -0.2699
      8 C         140.0691  141.4330  162.5502 C.3     1  UNL1        0.0955
      9 C         139.5793  141.2685  161.1420 C.3     1  UNL1        0.0430
     10 C         139.5026  140.3139  159.9875 C.3     1  UNL1        0.0954
     11 C         139.3972  137.1941  155.3815 C.3     1  UNL1        0.0522
     12 C         138.7942  138.5099  155.7752 C.ar    1  UNL1        0.0634
     13 C         137.8933  139.2373  154.8216 C.ar    1  UNL1        0.0296
     14 C         137.2903  140.5531  155.2153 C.ar    1  UNL1        0.0634
     15 C         136.3894  141.2805  154.2618 C.3     1  UNL1        0.0522
     16 N         137.5881  141.1414  156.5626 N.ar    1  UNL1       -0.2180
     17 C         138.4890  140.4140  157.5162 C.ar    1  UNL1        0.2195
     18 N         139.0920  139.0982  157.1225 N.ar    1  UNL1       -0.2180
     19 C         140.7289  142.5885  165.3864 C.ar    1  UNL1        0.0731
     20 C         139.9619  141.8884  166.4687 C.ar    1  UNL1        0.0084
     21 C         140.6897  141.0753  167.4980 C.ar    1  UNL1        0.0299
     22 C         142.1844  140.9625  167.4449 C.ar    1  UNL1        0.1417
     23 F         142.9122  140.1494  168.4742 F       1  UNL1       -0.2041
     24 C         142.9515  141.6626  166.3626 C.ar    1  UNL1        0.0507
     25 C         142.2237  142.4756  165.3333 C.ar    1  UNL1        0.1095
     26 N         142.9907  143.1757  164.2510 N.ar    1  UNL1       -0.1476
     27 N         143.5940  142.5300  163.0389 N.ar    1  UNL1       -0.1447
     28 C         144.2653  143.5997  162.2295 C.ar    1  UNL1        0.1446
     29 C         144.0769  144.9065  162.9414 C.ar    1  UNL1        0.1446
     30 N         143.2892  144.6445  164.1907 N.ar    1  UNL1       -0.1447
@<TRIPOS>BOND
     1    11    12    1
     2    12    13   ar
     3    13    14   ar
     4    14    15    1
     5    14    16   ar
     6    16    17   ar
     7    17     1    1
     8     1     2    1
     9     3     2    1
    10     3     4    1
    11     4     5    1
    12     5     6   am
    13     6     7    2
    14     6    19    1
    15    19    20   ar
    16    20    21   ar
    17    21    22   ar
    18    22    23    1
    19    22    24   ar
    20    24    25   ar
    21    25    26    1
    22    26    27   ar
    23    27    28   ar
    24    28    29   ar
    25    29    30   ar
    26     5     8    1
    27     9     8    1
    28     9    10    1
    29    17    18   ar
    30    18    12   ar
    31    10     1    1
    32     9     3    1
    33    25    19   ar
    34    30    26   ar
