@<TRIPOS>MOLECULE
*****
 38 41 0 0 0
SMALL
GASTEIGER

@<TRIPOS>ATOM
      1 C         142.1530  141.1738  154.8271 C.3     1  UNL1        0.0609
      2 C         141.1569  140.1685  155.3242 C.3     1  UNL1        0.0376
      3 C         141.5935  138.7649  155.6236 C.3     1  UNL1        0.0964
      4 N         143.0260  138.3667  155.4258 N.am    1  UNL1       -0.2629
      5 C         143.4625  136.9632  155.7252 C.2     1  UNL1        0.3226
      6 O         144.8951  136.5650  155.5275 O.2     1  UNL1       -0.2510
      7 N         142.4664  135.9579  156.2223 N.am    1  UNL1       -0.1691
      8 C         144.0221  139.3720  154.9287 C.3     1  UNL1        0.0964
      9 C         143.5857  140.7755  154.6294 C.3     1  UNL1        0.0376
     10 H         141.5261  136.2193  156.3521 H       1  UNL1        0.1781
     11 C         140.8436  145.3843  153.9290 C.3     1  UNL1        0.1687
     12 C         139.9117  144.2377  153.6702 C.3     1  UNL1        0.0609
     13 C         140.3482  142.8342  153.9696 C.3     1  UNL1        0.0758
     14 N         141.7166  142.5773  154.5278 N.3     1  UNL1       -0.2736
     15 C         142.6484  143.7238  154.7865 C.3     1  UNL1        0.0758
     16 C         142.2120  145.1273  154.4871 C.3     1  UNL1        0.0609
     17 O         140.4071  146.7878  153.6296 O.3     1  UNL1       -0.4782
     18 C         138.5979  151.3695  155.2835 C.3     1  UNL1        0.0329
     19 C         138.8899  149.9201  155.5367 C.ar    1  UNL1        0.0023
     20 C         138.5693  149.3122  156.8700 C.ar    1  UNL1        0.0547
     21 CL        137.9567  150.1537  157.9501 Cl      1  UNL1       -0.0825
     22 C         138.8613  147.8629  157.1231 C.ar    1  UNL1        0.0142
     23 C         139.4739  147.0214  156.0431 C.ar    1  UNL1        0.0386
     24 C         139.7945  147.6293  154.7098 C.ar    1  UNL1        0.1485
     25 C         139.5025  149.0786  154.4566 C.ar    1  UNL1        0.0884
     26 CL        139.8231  149.6865  153.1233 Cl      1  UNL1       -0.0794
     27 S         142.9029  134.5544  156.5217 S.O2    1  UNL1        0.0768
     28 O         142.4706  134.1274  155.1503 O.2     1  UNL1       -0.1498
     29 O         143.3352  134.9814  157.8931 O.2     1  UNL1       -0.1498
     30 C         143.3395  133.1509  156.8211 C.ar    1  UNL1        0.1254
     31 C         144.5608  132.9076  157.6572 C.ar    1  UNL1        0.0215
     32 C         144.9974  131.5040  157.9565 C.ar    1  UNL1        0.0159
     33 C         144.2125  130.3439  157.4199 C.ar    1  UNL1        0.0480
     34 C         142.9911  130.5872  156.5838 C.ar    1  UNL1        0.0159
     35 C         142.5546  131.9907  156.2844 C.ar    1  UNL1        0.0215
     36 N         144.6490  128.9404  157.7193 N.pl3   1  UNL1       -0.3041
     37 C         144.6663  127.9114  156.6280 C.3     1  UNL1        0.1122
     38 C         145.0683  128.5659  159.1100 C.3     1  UNL1        0.1122
@<TRIPOS>BOND
     1    18    19    1
     2    19    20   ar
     3    20    21    1
     4    20    22   ar
     5    22    23   ar
     6    23    24   ar
     7    24    17    1
     8    17    11    1
     9    11    12    1
    10    12    13    1
    11    13    14    1
    12    14     1    1
    13     1     2    1
    14     2     3    1
    15     3     4    1
    16     4     5   am
    17     5     6    2
    18     5     7   am
    19     7    27    1
    20    27    28    2
    21    27    29    2
    22    27    30    1
    23    30    31   ar
    24    31    32   ar
    25    32    33   ar
    26    33    36    1
    27    36    37    1
    28    36    38    1
    29    33    34   ar
    30    34    35   ar
    31     4     8    1
    32     8     9    1
    33    14    15    1
    34    15    16    1
    35    24    25   ar
    36    25    26    1
    37    25    19   ar
    38    16    11    1
    39     9     1    1
    40    35    30   ar
    41     7    10    1
@<TRIPOS>MOLECULE
*****
 38 41 0 0 0
SMALL
GASTEIGER

@<TRIPOS>ATOM
      1 C         142.4927  140.5887  156.1906 C.3     1  UNL1        0.0609
      2 C         141.4697  141.0203  155.1821 C.3     1  UNL1        0.0376
      3 C         141.0964  142.4684  155.0649 C.3     1  UNL1        0.0964
      4 N         141.7461  143.4849  155.9563 N.am    1  UNL1       -0.2629
      5 C         141.3729  144.9330  155.8391 C.2     1  UNL1        0.3226
      6 O         142.0226  145.9495  156.7305 O.2     1  UNL1       -0.2510
      7 N         140.3498  145.3645  154.8306 N.am    1  UNL1       -0.1691
      8 C         142.7692  143.0533  156.9648 C.3     1  UNL1        0.0964
      9 C         143.1425  141.6053  157.0819 C.3     1  UNL1        0.0376
     10 H         139.9233  144.6974  154.2456 H       1  UNL1        0.1781
     11 C         143.6127  136.2445  156.5420 C.3     1  UNL1        0.1687
     12 C         144.1473  137.0675  155.4076 C.3     1  UNL1        0.0609
     13 C         143.7740  138.5156  155.2905 C.3     1  UNL1        0.0758
     14 N         142.8660  139.1407  156.3077 N.3     1  UNL1       -0.2736
     15 C         142.3314  138.3177  157.4421 C.3     1  UNL1        0.0758
     16 C         142.7047  136.8697  157.5593 C.3     1  UNL1        0.0609
     17 O         143.9860  134.7965  156.6592 O.3     1  UNL1       -0.4782
     18 C         142.6339  129.7955  156.2561 C.3     1  UNL1        0.0329
     19 C         142.3872  131.2384  155.9285 C.ar    1  UNL1        0.0023
     20 C         141.2177  131.6236  155.0719 C.ar    1  UNL1        0.0547
     21 CL        140.2949  130.5660  154.5428 Cl      1  UNL1       -0.0825
     22 C         140.9709  133.0665  154.7444 C.ar    1  UNL1        0.0142
     23 C         141.8937  134.1241  155.2734 C.ar    1  UNL1        0.0386
     24 C         143.0632  133.7389  156.1300 C.ar    1  UNL1        0.1485
     25 C         143.3099  132.2960  156.4576 C.ar    1  UNL1        0.0884
     26 CL        144.4795  131.9108  157.3143 Cl      1  UNL1       -0.0794
     27 S         139.9765  146.8127  154.7135 S.O2    1  UNL1        0.0768
     28 O         141.0168  146.9947  153.6484 O.2     1  UNL1       -0.1498
     29 O         138.9362  146.6306  155.7786 O.2     1  UNL1       -0.1498
     30 C         139.6032  148.2607  154.5964 C.ar    1  UNL1        0.1254
     31 C         139.9834  149.0365  153.3702 C.ar    1  UNL1        0.0215
     32 C         139.6100  150.4846  153.2531 C.ar    1  UNL1        0.0159
     33 C         138.8565  151.1569  154.3623 C.ar    1  UNL1        0.0480
     34 C         138.4763  150.3811  155.5885 C.ar    1  UNL1        0.0159
     35 C         138.8496  148.9331  155.7056 C.ar    1  UNL1        0.0215
     36 N         138.4832  152.6049  154.2452 N.pl3   1  UNL1       -0.3041
     37 C         138.1224  153.1807  152.9079 C.3     1  UNL1        0.1122
     38 C         138.4708  153.4773  155.4654 C.3     1  UNL1        0.1122
@<TRIPOS>BOND
     1    18    19    1
     2    19    20   ar
     3    20    21    1
     4    20    22   ar
     5    22    23   ar
     6    23    24   ar
     7    24    17    1
     8    17    11    1
     9    11    12    1
    10    12    13    1
    11    13    14    1
    12    14     1    1
    13     1     2    1
    14     2     3    1
    15     3     4    1
    16     4     5   am
    17     5     6    2
    18     5     7   am
    19     7    27    1
    20    27    28    2
    21    27    29    2
    22    27    30    1
    23    30    31   ar
    24    31    32   ar
    25    32    33   ar
    26    33    36    1
    27    36    37    1
    28    36    38    1
    29    33    34   ar
    30    34    35   ar
    31     4     8    1
    32     8     9    1
    33    14    15    1
    34    15    16    1
    35    24    25   ar
    36    25    26    1
    37    25    19   ar
    38    16    11    1
    39     9     1    1
    40    35    30   ar
    41     7    10    1
@<TRIPOS>MOLECULE
*****
 38 41 0 0 0
SMALL
GASTEIGER

@<TRIPOS>ATOM
      1 C         140.2889  145.2452  158.2042 C.3     1  UNL1        0.0609
      2 C         140.9618  145.8458  159.4028 C.3     1  UNL1        0.0376
      3 C         141.0212  145.0805  160.6916 C.3     1  UNL1        0.0964
      4 N         140.4078  143.7147  160.7818 N.am    1  UNL1       -0.2629
      5 C         140.4673  142.9495  162.0705 C.2     1  UNL1        0.3226
      6 O         139.8538  141.5836  162.1607 O.2     1  UNL1       -0.2510
      7 N         141.1401  143.5501  163.2690 N.am    1  UNL1       -0.1691
      8 C         139.7350  143.1140  159.5832 C.3     1  UNL1        0.0964
      9 C         139.6755  143.8792  158.2945 C.3     1  UNL1        0.0376
     10 H         141.5427  144.4466  163.2098 H       1  UNL1        0.1781
     11 C         140.1106  147.5408  154.3379 C.3     1  UNL1        0.1687
     12 C         141.1032  146.4285  154.5047 C.3     1  UNL1        0.0609
     13 C         141.1626  145.6633  155.7935 C.3     1  UNL1        0.0758
     14 N         140.2295  146.0104  156.9155 N.3     1  UNL1       -0.2736
     15 C         139.2370  147.1226  156.7487 C.3     1  UNL1        0.0758
     16 C         139.1775  147.8878  155.4600 C.3     1  UNL1        0.0609
     17 O         140.0512  148.3060  153.0492 O.3     1  UNL1       -0.4782
     18 C         141.0943  153.3874  153.3507 C.3     1  UNL1        0.0329
     19 C         141.5066  151.9972  152.9671 C.ar    1  UNL1        0.0023
     20 C         142.8528  151.7574  152.3505 C.ar    1  UNL1        0.0547
     21 CL        143.7868  152.9080  152.1176 Cl      1  UNL1       -0.0825
     22 C         143.2652  150.3672  151.9668 C.ar    1  UNL1        0.0142
     23 C         142.3313  149.2167  152.1997 C.ar    1  UNL1        0.0386
     24 C         140.9851  149.4565  152.8163 C.ar    1  UNL1        0.1485
     25 C         140.5728  150.8467  153.2000 C.ar    1  UNL1        0.0884
     26 CL        139.2265  151.0864  153.8166 Cl      1  UNL1       -0.0794
     27 S         141.1995  142.7848  164.5578 S.O2    1  UNL1        0.0768
     28 O         142.4617  142.1148  164.1018 O.2     1  UNL1       -0.1498
     29 O         139.9374  143.4548  165.0138 O.2     1  UNL1       -0.1498
     30 C         141.2589  142.0196  165.8465 C.ar    1  UNL1        0.1254
     31 C         140.2470  142.2824  166.9222 C.ar    1  UNL1        0.0215
     32 C         140.3064  141.5171  168.2110 C.ar    1  UNL1        0.0159
     33 C         141.3777  140.4891  168.4241 C.ar    1  UNL1        0.0480
     34 C         142.3896  140.2263  167.3484 C.ar    1  UNL1        0.0159
     35 C         142.3302  140.9915  166.0597 C.ar    1  UNL1        0.0215
     36 N         141.4371  139.7239  169.7128 N.pl3   1  UNL1       -0.3041
     37 C         140.3690  139.9151  170.7485 C.3     1  UNL1        0.1122
     38 C         142.5646  138.7674  169.9659 C.3     1  UNL1        0.1122
@<TRIPOS>BOND
     1    18    19    1
     2    19    20   ar
     3    20    21    1
     4    20    22   ar
     5    22    23   ar
     6    23    24   ar
     7    24    17    1
     8    17    11    1
     9    11    12    1
    10    12    13    1
    11    13    14    1
    12    14     1    1
    13     1     2    1
    14     2     3    1
    15     3     4    1
    16     4     5   am
    17     5     6    2
    18     5     7   am
    19     7    27    1
    20    27    28    2
    21    27    29    2
    22    27    30    1
    23    30    31   ar
    24    31    32   ar
    25    32    33   ar
    26    33    36    1
    27    36    37    1
    28    36    38    1
    29    33    34   ar
    30    34    35   ar
    31     4     8    1
    32     8     9    1
    33    14    15    1
    34    15    16    1
    35    24    25   ar
    36    25    26    1
    37    25    19   ar
    38    16    11    1
    39     9     1    1
    40    35    30   ar
    41     7    10    1
@<TRIPOS>MOLECULE
*****
 38 41 0 0 0
SMALL
GASTEIGER

@<TRIPOS>ATOM
      1 C         141.0885  140.6582  155.0308 C.3     1  UNL1        0.0609
      2 C         140.1359  141.3613  154.1098 C.3     1  UNL1        0.0376
      3 C         140.0199  142.8563  154.1496 C.3     1  UNL1        0.0964
      4 N         140.8566  143.6482  155.1103 N.am    1  UNL1       -0.2629
      5 C         140.7406  145.1431  155.1500 C.2     1  UNL1        0.3226
      6 O         141.5772  145.9351  156.1107 O.2     1  UNL1       -0.2510
      7 N         139.7880  145.8462  154.2290 N.am    1  UNL1       -0.1691
      8 C         141.8092  142.9451  156.0313 C.3     1  UNL1        0.0964
      9 C         141.9252  141.4501  155.9915 C.3     1  UNL1        0.0376
     10 H         139.2388  145.3265  153.5985 H       1  UNL1        0.1781
     11 C         141.4364  136.1732  154.9117 C.3     1  UNL1        0.1687
     12 C         140.2066  136.8152  155.4821 C.3     1  UNL1        0.0609
     13 C         140.0907  138.3102  155.5218 C.3     1  UNL1        0.0758
     14 N         141.2045  139.1632  154.9911 N.3     1  UNL1       -0.2736
     15 C         142.4343  138.5213  154.4206 C.3     1  UNL1        0.0758
     16 C         142.5503  137.0263  154.3809 C.3     1  UNL1        0.0609
     17 O         141.5524  134.6783  154.8720 O.3     1  UNL1       -0.4782
     18 C         144.8855  130.7528  155.5659 C.3     1  UNL1        0.0329
     19 C         144.2517  132.0209  156.0561 C.ar    1  UNL1        0.0023
     20 C         144.6507  132.5943  157.3834 C.ar    1  UNL1        0.0547
     21 CL        145.6835  131.8996  158.2206 Cl      1  UNL1       -0.0825
     22 C         144.0170  133.8624  157.8736 C.ar    1  UNL1        0.0142
     23 C         142.9843  134.5571  157.0365 C.ar    1  UNL1        0.0386
     24 C         142.5852  133.9836  155.7092 C.ar    1  UNL1        0.1485
     25 C         143.2190  132.7155  155.2189 C.ar    1  UNL1        0.0884
     26 CL        142.8199  132.1421  153.8915 Cl      1  UNL1       -0.0794
     27 S         139.6720  147.3412  154.2688 S.O2    1  UNL1        0.0768
     28 O         138.6205  147.2314  155.3328 O.2     1  UNL1       -0.1498
     29 O         140.7235  147.4510  153.2047 O.2     1  UNL1       -0.1498
     30 C         139.5561  148.8362  154.3085 C.ar    1  UNL1        0.1254
     31 C         140.1825  149.6660  153.2273 C.ar    1  UNL1        0.0215
     32 C         140.0666  151.1611  153.2671 C.ar    1  UNL1        0.0159
     33 C         139.3242  151.8262  154.3880 C.ar    1  UNL1        0.0480
     34 C         138.6977  150.9963  155.4691 C.ar    1  UNL1        0.0159
     35 C         138.8136  149.5014  155.4294 C.ar    1  UNL1        0.0215
     36 N         139.2083  153.3211  154.4277 N.pl3   1  UNL1       -0.3041
     37 C         140.2059  154.1704  153.6973 C.3     1  UNL1        0.1122
     38 C         138.0947  153.9669  155.1978 C.3     1  UNL1        0.1122
@<TRIPOS>BOND
     1    18    19    1
     2    19    20   ar
     3    20    21    1
     4    20    22   ar
     5    22    23   ar
     6    23    24   ar
     7    24    17    1
     8    17    11    1
     9    11    12    1
    10    12    13    1
    11    13    14    1
    12    14     1    1
    13     1     2    1
    14     2     3    1
    15     3     4    1
    16     4     5   am
    17     5     6    2
    18     5     7   am
    19     7    27    1
    20    27    28    2
    21    27    29    2
    22    27    30    1
    23    30    31   ar
    24    31    32   ar
    25    32    33   ar
    26    33    36    1
    27    36    37    1
    28    36    38    1
    29    33    34   ar
    30    34    35   ar
    31     4     8    1
    32     8     9    1
    33    14    15    1
    34    15    16    1
    35    24    25   ar
    36    25    26    1
    37    25    19   ar
    38    16    11    1
    39     9     1    1
    40    35    30   ar
    41     7    10    1
@<TRIPOS>MOLECULE
*****
 38 41 0 0 0
SMALL
GASTEIGER

@<TRIPOS>ATOM
      1 C         142.0940  136.4662  156.1256 C.3     1  UNL1        0.0609
      2 C         141.1869  137.1486  155.1450 C.3     1  UNL1        0.0376
      3 C         140.8769  138.6080  155.3001 C.3     1  UNL1        0.0964
      4 N         141.4740  139.3851  156.4357 N.am    1  UNL1       -0.2629
      5 C         141.1640  140.8444  156.5907 C.2     1  UNL1        0.3226
      6 O         141.7610  141.6216  157.7264 O.2     1  UNL1       -0.2510
      7 N         140.2569  141.5268  155.6101 N.am    1  UNL1       -0.1691
      8 C         142.3811  138.7027  157.4163 C.3     1  UNL1        0.0964
      9 C         142.6911  137.2434  157.2613 C.3     1  UNL1        0.0376
     10 H         139.8650  141.0168  154.8647 H       1  UNL1        0.1781
     11 C         143.0240  132.0880  155.6606 C.3     1  UNL1        0.1687
     12 C         141.6695  132.6112  155.2841 C.3     1  UNL1        0.0609
     13 C         141.3595  134.0706  155.4391 C.3     1  UNL1        0.0758
     14 N         142.4040  135.0069  155.9706 N.3     1  UNL1       -0.2736
     15 C         143.7584  134.4837  156.3472 C.3     1  UNL1        0.0758
     16 C         144.0685  133.0243  156.1922 C.3     1  UNL1        0.0609
     17 O         143.3340  130.6286  155.5056 O.3     1  UNL1       -0.4782
     18 C         141.0484  126.4926  157.6664 C.3     1  UNL1        0.0329
     19 C         142.0225  127.6302  157.7505 C.ar    1  UNL1        0.0023
     20 C         142.8277  127.8374  158.9989 C.ar    1  UNL1        0.0547
     21 CL        142.6590  126.9070  160.1633 Cl      1  UNL1       -0.0825
     22 C         143.8018  128.9751  159.0829 C.ar    1  UNL1        0.0142
     23 C         143.9705  129.9055  157.9185 C.ar    1  UNL1        0.0386
     24 C         143.1653  129.6982  156.6701 C.ar    1  UNL1        0.1485
     25 C         142.1912  128.5606  156.5861 C.ar    1  UNL1        0.0884
     26 CL        141.3859  128.3534  155.3376 Cl      1  UNL1       -0.0794
     27 S         139.9469  142.9862  155.7651 S.O2    1  UNL1        0.0768
     28 O         141.0720  143.3243  154.8326 O.2     1  UNL1       -0.1498
     29 O         138.8217  142.6481  156.6977 O.2     1  UNL1       -0.1498
     30 C         139.6368  144.4456  155.9202 C.ar    1  UNL1        0.1254
     31 C         140.0635  145.1755  157.1592 C.ar    1  UNL1        0.0215
     32 C         139.7535  146.6349  157.3143 C.ar    1  UNL1        0.0159
     33 C         139.0168  147.3644  156.2303 C.ar    1  UNL1        0.0480
     34 C         138.5901  146.6345  154.9913 C.ar    1  UNL1        0.0159
     35 C         138.9001  145.1752  154.8362 C.ar    1  UNL1        0.0215
     36 N         138.7067  148.8238  156.3854 N.pl3   1  UNL1       -0.3041
     37 C         138.9005  149.7587  155.2285 C.3     1  UNL1        0.1122
     38 C         138.2030  149.3482  157.6974 C.3     1  UNL1        0.1122
@<TRIPOS>BOND
     1    18    19    1
     2    19    20   ar
     3    20    21    1
     4    20    22   ar
     5    22    23   ar
     6    23    24   ar
     7    24    17    1
     8    17    11    1
     9    11    12    1
    10    12    13    1
    11    13    14    1
    12    14     1    1
    13     1     2    1
    14     2     3    1
    15     3     4    1
    16     4     5   am
    17     5     6    2
    18     5     7   am
    19     7    27    1
    20    27    28    2
    21    27    29    2
    22    27    30    1
    23    30    31   ar
    24    31    32   ar
    25    32    33   ar
    26    33    36    1
    27    36    37    1
    28    36    38    1
    29    33    34   ar
    30    34    35   ar
    31     4     8    1
    32     8     9    1
    33    14    15    1
    34    15    16    1
    35    24    25   ar
    36    25    26    1
    37    25    19   ar
    38    16    11    1
    39     9     1    1
    40    35    30   ar
    41     7    10    1
@<TRIPOS>MOLECULE
*****
 38 41 0 0 0
SMALL
GASTEIGER

@<TRIPOS>ATOM
      1 C         144.8342  141.3694  157.9193 C.3     1  UNL1        0.0609
      2 C         145.0565  142.4385  158.9477 C.3     1  UNL1        0.0376
      3 C         144.4041  142.3312  160.2942 C.3     1  UNL1        0.0964
      4 N         143.5296  141.1548  160.6123 N.am    1  UNL1       -0.2629
      5 C         142.8773  141.0476  161.9587 C.2     1  UNL1        0.3226
      6 O         142.0027  139.8711  162.2769 O.2     1  UNL1       -0.2510
      7 N         143.0996  142.1167  162.9871 N.am    1  UNL1       -0.1691
      8 C         143.3074  140.0857  159.5839 C.3     1  UNL1        0.0964
      9 C         143.9596  140.1929  158.2375 C.3     1  UNL1        0.0376
     10 H         143.6736  142.8889  162.7783 H       1  UNL1        0.1781
     11 C         146.7911  141.6911  153.8799 C.3     1  UNL1        0.1687
     12 C         145.4799  140.9767  154.0233 C.3     1  UNL1        0.0609
     13 C         144.8277  140.8695  155.3699 C.3     1  UNL1        0.0758
     14 N         145.4865  141.4766  156.5729 N.3     1  UNL1       -0.2736
     15 C         146.7977  142.1910  156.4294 C.3     1  UNL1        0.0758
     16 C         147.4500  142.2982  155.0830 C.3     1  UNL1        0.0609
     17 O         147.4434  141.7983  152.5334 O.3     1  UNL1       -0.4782
     18 C         152.0820  144.1320  152.7270 C.3     1  UNL1        0.0329
     19 C         151.2566  142.8979  152.5131 C.ar    1  UNL1        0.0023
     20 C         151.9251  141.5966  152.1820 C.ar    1  UNL1        0.0547
     21 CL        153.4190  141.5293  152.0648 Cl      1  UNL1       -0.0825
     22 C         151.0997  140.3625  151.9680 C.ar    1  UNL1        0.0142
     23 C         149.6058  140.4297  152.0852 C.ar    1  UNL1        0.0386
     24 C         148.9373  141.7310  152.4163 C.ar    1  UNL1        0.1485
     25 C         149.7627  142.9651  152.6302 C.ar    1  UNL1        0.0884
     26 CL        149.0942  144.2665  152.9614 Cl      1  UNL1       -0.0794
     27 S         142.4472  142.0095  164.3336 S.O2    1  UNL1        0.0768
     28 O         143.7183  141.4550  164.9053 O.2     1  UNL1       -0.1498
     29 O         141.1761  142.5639  163.7619 O.2     1  UNL1       -0.1498
     30 C         141.7949  141.9022  165.6800 C.ar    1  UNL1        0.1254
     31 C         140.8074  142.9421  166.1200 C.ar    1  UNL1        0.0215
     32 C         140.1550  142.8347  167.4665 C.ar    1  UNL1        0.0159
     33 C         140.4902  141.6876  168.3729 C.ar    1  UNL1        0.0480
     34 C         141.4776  140.6478  167.9330 C.ar    1  UNL1        0.0159
     35 C         142.1300  140.7550  166.5866 C.ar    1  UNL1        0.0215
     36 N         139.8378  141.5804  169.7194 N.pl3   1  UNL1       -0.3041
     37 C         138.9606  140.4056  170.0363 C.3     1  UNL1        0.1122
     38 C         140.0626  142.6479  170.7489 C.3     1  UNL1        0.1122
@<TRIPOS>BOND
     1    18    19    1
     2    19    20   ar
     3    20    21    1
     4    20    22   ar
     5    22    23   ar
     6    23    24   ar
     7    24    17    1
     8    17    11    1
     9    11    12    1
    10    12    13    1
    11    13    14    1
    12    14     1    1
    13     1     2    1
    14     2     3    1
    15     3     4    1
    16     4     5   am
    17     5     6    2
    18     5     7   am
    19     7    27    1
    20    27    28    2
    21    27    29    2
    22    27    30    1
    23    30    31   ar
    24    31    32   ar
    25    32    33   ar
    26    33    36    1
    27    36    37    1
    28    36    38    1
    29    33    34   ar
    30    34    35   ar
    31     4     8    1
    32     8     9    1
    33    14    15    1
    34    15    16    1
    35    24    25   ar
    36    25    26    1
    37    25    19   ar
    38    16    11    1
    39     9     1    1
    40    35    30   ar
    41     7    10    1
@<TRIPOS>MOLECULE
*****
 38 41 0 0 0
SMALL
GASTEIGER

@<TRIPOS>ATOM
      1 C         142.1431  137.2585  155.9168 C.3     1  UNL1        0.0609
      2 C         140.7802  137.8420  155.6884 C.3     1  UNL1        0.0376
      3 C         140.6184  139.3228  155.5111 C.3     1  UNL1        0.0964
      4 N         141.8195  140.2199  155.5622 N.am    1  UNL1       -0.2629
      5 C         141.6576  141.7005  155.3849 C.2     1  UNL1        0.3226
      6 O         142.8587  142.5977  155.4360 O.2     1  UNL1       -0.2510
      7 N         140.2948  142.2840  155.1565 N.am    1  UNL1       -0.1691
      8 C         143.1823  139.6364  155.7906 C.3     1  UNL1        0.0964
      9 C         143.3441  138.1557  155.9679 C.3     1  UNL1        0.0376
     10 H         139.5065  141.6952  155.1229 H       1  UNL1        0.1781
     11 C         142.6286  132.8165  156.4487 C.3     1  UNL1        0.1687
     12 C         143.5234  133.7632  157.1925 C.3     1  UNL1        0.0609
     13 C         143.3615  135.2439  157.0151 C.3     1  UNL1        0.0758
     14 N         142.3049  135.7779  156.0941 N.3     1  UNL1       -0.2736
     15 C         141.4101  134.8312  155.3503 C.3     1  UNL1        0.0758
     16 C         141.5719  133.3506  155.5277 C.3     1  UNL1        0.0609
     17 O         142.7904  131.3359  156.6260 O.3     1  UNL1       -0.4782
     18 C         145.9586  127.4188  155.3536 C.3     1  UNL1        0.0329
     19 C         145.0883  128.5705  154.9460 C.ar    1  UNL1        0.0023
     20 C         144.9318  128.9155  153.4946 C.ar    1  UNL1        0.0547
     21 CL        145.6456  128.1087  152.4507 Cl      1  UNL1       -0.0825
     22 C         144.0615  130.0672  153.0870 C.ar    1  UNL1        0.0142
     23 C         143.3477  130.8740  154.1308 C.ar    1  UNL1        0.0386
     24 C         143.5042  130.5291  155.5822 C.ar    1  UNL1        0.1485
     25 C         144.3745  129.3773  155.9898 C.ar    1  UNL1        0.0884
     26 CL        144.5310  129.0324  157.4412 Cl      1  UNL1       -0.0794
     27 S         140.1330  143.7647  154.9792 S.O2    1  UNL1        0.0768
     28 O         140.4259  143.6215  153.5151 O.2     1  UNL1       -0.1498
     29 O         139.8402  143.9080  156.4433 O.2     1  UNL1       -0.1498
     30 C         139.9712  145.2454  154.8019 C.ar    1  UNL1        0.1254
     31 C         140.7723  145.9680  153.7598 C.ar    1  UNL1        0.0215
     32 C         140.6105  147.4487  153.5825 C.ar    1  UNL1        0.0159
     33 C         139.6476  148.2068  154.4475 C.ar    1  UNL1        0.0480
     34 C         138.8465  147.4842  155.4896 C.ar    1  UNL1        0.0159
     35 C         139.0083  146.0035  155.6669 C.ar    1  UNL1        0.0215
     36 N         139.4859  149.6874  154.2702 N.pl3   1  UNL1       -0.3041
     37 C         138.8676  150.5103  155.3614 C.3     1  UNL1        0.1122
     38 C         139.9423  150.3453  153.0017 C.3     1  UNL1        0.1122
@<TRIPOS>BOND
     1    18    19    1
     2    19    20   ar
     3    20    21    1
     4    20    22   ar
     5    22    23   ar
     6    23    24   ar
     7    24    17    1
     8    17    11    1
     9    11    12    1
    10    12    13    1
    11    13    14    1
    12    14     1    1
    13     1     2    1
    14     2     3    1
    15     3     4    1
    16     4     5   am
    17     5     6    2
    18     5     7   am
    19     7    27    1
    20    27    28    2
    21    27    29    2
    22    27    30    1
    23    30    31   ar
    24    31    32   ar
    25    32    33   ar
    26    33    36    1
    27    36    37    1
    28    36    38    1
    29    33    34   ar
    30    34    35   ar
    31     4     8    1
    32     8     9    1
    33    14    15    1
    34    15    16    1
    35    24    25   ar
    36    25    26    1
    37    25    19   ar
    38    16    11    1
    39     9     1    1
    40    35    30   ar
    41     7    10    1
@<TRIPOS>MOLECULE
*****
 38 41 0 0 0
SMALL
GASTEIGER

@<TRIPOS>ATOM
      1 C         142.3749  138.2760  155.8571 C.3     1  UNL1        0.0609
      2 C         141.7879  138.8945  154.6231 C.3     1  UNL1        0.0376
      3 C         141.4626  140.3587  154.6000 C.3     1  UNL1        0.0964
      4 N         141.7244  141.2043  155.8110 N.am    1  UNL1       -0.2629
      5 C         141.3991  142.6684  155.7879 C.2     1  UNL1        0.3226
      6 O         141.6608  143.5140  156.9989 O.2     1  UNL1       -0.2510
      7 N         140.8120  143.2869  154.5539 N.am    1  UNL1       -0.1691
      8 C         142.3114  140.5858  157.0450 C.3     1  UNL1        0.0964
      9 C         142.6367  139.1217  157.0681 C.3     1  UNL1        0.0376
     10 H         140.6402  142.7319  153.7591 H       1  UNL1        0.1781
     11 C         143.3509  133.8837  155.9263 C.3     1  UNL1        0.1687
     12 C         143.0869  134.5728  154.6204 C.3     1  UNL1        0.0609
     13 C         142.7616  136.0370  154.5973 C.3     1  UNL1        0.0758
     14 N         142.7002  136.8119  155.8802 N.3     1  UNL1       -0.2736
     15 C         142.9642  136.1228  157.1861 C.3     1  UNL1        0.0758
     16 C         143.2895  134.6587  157.2091 C.3     1  UNL1        0.0609
     17 O         143.6762  132.4196  155.9493 O.3     1  UNL1       -0.4782
     18 C         141.9717  127.5113  156.0117 C.3     1  UNL1        0.0329
     19 C         141.7600  128.9557  155.6668 C.ar    1  UNL1        0.0023
     20 C         140.4843  129.3903  155.0081 C.ar    1  UNL1        0.0547
     21 CL        139.4203  128.3806  154.6944 Cl      1  UNL1       -0.0825
     22 C         140.2726  130.8347  154.6632 C.ar    1  UNL1        0.0142
     23 C         141.3365  131.8445  154.9769 C.ar    1  UNL1        0.0386
     24 C         142.6122  131.4098  155.6356 C.ar    1  UNL1        0.1485
     25 C         142.8239  129.9655  155.9805 C.ar    1  UNL1        0.0884
     26 CL        144.0996  129.5309  156.6392 Cl      1  UNL1       -0.0794
     27 S         140.4867  144.7511  154.5309 S.O2    1  UNL1        0.0768
     28 O         141.8655  145.0494  154.0212 O.2     1  UNL1       -0.1498
     29 O         139.1079  144.4527  155.0406 O.2     1  UNL1       -0.1498
     30 C         140.1614  146.2151  154.5079 C.ar    1  UNL1        0.1254
     31 C         140.8167  147.1133  153.5010 C.ar    1  UNL1        0.0215
     32 C         140.4913  148.5775  153.4780 C.ar    1  UNL1        0.0159
     33 C         139.5107  149.1434  154.4619 C.ar    1  UNL1        0.0480
     34 C         138.8553  148.2452  155.4687 C.ar    1  UNL1        0.0159
     35 C         139.1806  146.7811  155.4917 C.ar    1  UNL1        0.0215
     36 N         139.1853  150.6075  154.4389 N.pl3   1  UNL1       -0.3041
     37 C         138.7515  151.2992  155.6971 C.3     1  UNL1        0.1122
     38 C         139.2938  151.3799  153.1575 C.3     1  UNL1        0.1122
@<TRIPOS>BOND
     1    18    19    1
     2    19    20   ar
     3    20    21    1
     4    20    22   ar
     5    22    23   ar
     6    23    24   ar
     7    24    17    1
     8    17    11    1
     9    11    12    1
    10    12    13    1
    11    13    14    1
    12    14     1    1
    13     1     2    1
    14     2     3    1
    15     3     4    1
    16     4     5   am
    17     5     6    2
    18     5     7   am
    19     7    27    1
    20    27    28    2
    21    27    29    2
    22    27    30    1
    23    30    31   ar
    24    31    32   ar
    25    32    33   ar
    26    33    36    1
    27    36    37    1
    28    36    38    1
    29    33    34   ar
    30    34    35   ar
    31     4     8    1
    32     8     9    1
    33    14    15    1
    34    15    16    1
    35    24    25   ar
    36    25    26    1
    37    25    19   ar
    38    16    11    1
    39     9     1    1
    40    35    30   ar
    41     7    10    1
@<TRIPOS>MOLECULE
*****
 38 41 0 0 0
SMALL
GASTEIGER

@<TRIPOS>ATOM
      1 C         141.3640  136.7525  154.8823 C.3     1  UNL1        0.0609
      2 C         142.3865  137.8248  154.6484 C.3     1  UNL1        0.0376
      3 C         141.9831  139.2688  154.6951 C.3     1  UNL1        0.0964
      4 N         140.5573  139.6406  154.9758 N.am    1  UNL1       -0.2629
      5 C         140.1540  141.0845  155.0225 C.2     1  UNL1        0.3226
      6 O         138.7281  141.4563  155.3032 O.2     1  UNL1       -0.2510
      7 N         141.1765  142.1568  154.7885 N.am    1  UNL1       -0.1691
      8 C         139.5348  138.5683  155.2098 C.3     1  UNL1        0.0964
      9 C         139.9381  137.1243  155.1630 C.3     1  UNL1        0.0376
     10 H         142.1124  141.9128  154.6043 H       1  UNL1        0.1781
     11 C         142.5739  132.4205  154.7422 C.3     1  UNL1        0.1687
     12 C         142.1587  133.1243  153.4843 C.3     1  UNL1        0.0609
     13 C         141.7554  134.5684  153.5311 C.3     1  UNL1        0.0758
     14 N         141.7673  135.3086  154.8356 N.3     1  UNL1       -0.2736
     15 C         142.1825  134.6047  156.0935 C.3     1  UNL1        0.0758
     16 C         142.5858  133.1608  156.0468 C.3     1  UNL1        0.0609
     17 O         142.9772  130.9765  154.6955 O.3     1  UNL1       -0.4782
     18 C         141.8344  126.7260  157.4572 C.3     1  UNL1        0.0329
     19 C         141.4284  127.7862  156.4769 C.ar    1  UNL1        0.0023
     20 C         140.0450  127.7814  155.8970 C.ar    1  UNL1        0.0547
     21 CL        139.0676  126.7164  156.2975 Cl      1  UNL1       -0.0825
     22 C         139.6390  128.8416  154.9167 C.ar    1  UNL1        0.0142
     23 C         140.6164  129.9067  154.5162 C.ar    1  UNL1        0.0386
     24 C         141.9997  129.9115  155.0960 C.ar    1  UNL1        0.1485
     25 C         142.4057  128.8513  156.0763 C.ar    1  UNL1        0.0884
     26 CL        143.7892  128.8561  156.6562 Cl      1  UNL1       -0.0794
     27 S         140.7732  143.6008  154.8352 S.O2    1  UNL1        0.0768
     28 O         140.4340  143.5534  153.3748 O.2     1  UNL1       -0.1498
     29 O         141.1123  143.6483  156.2956 O.2     1  UNL1       -0.1498
     30 C         140.3698  145.0448  154.8820 C.ar    1  UNL1        0.1254
     31 C         140.7908  145.9770  153.7848 C.ar    1  UNL1        0.0215
     32 C         140.3874  147.4211  153.8316 C.ar    1  UNL1        0.0159
     33 C         139.5631  147.9328  154.9755 C.ar    1  UNL1        0.0480
     34 C         139.1422  147.0006  156.0727 C.ar    1  UNL1        0.0159
     35 C         139.5455  145.5566  156.0259 C.ar    1  UNL1        0.0215
     36 N         139.1598  149.3768  155.0223 N.pl3   1  UNL1       -0.3041
     37 C         138.3654  149.8964  156.1837 C.3     1  UNL1        0.1122
     38 C         139.5509  150.3012  153.9076 C.3     1  UNL1        0.1122
@<TRIPOS>BOND
     1    18    19    1
     2    19    20   ar
     3    20    21    1
     4    20    22   ar
     5    22    23   ar
     6    23    24   ar
     7    24    17    1
     8    17    11    1
     9    11    12    1
    10    12    13    1
    11    13    14    1
    12    14     1    1
    13     1     2    1
    14     2     3    1
    15     3     4    1
    16     4     5   am
    17     5     6    2
    18     5     7   am
    19     7    27    1
    20    27    28    2
    21    27    29    2
    22    27    30    1
    23    30    31   ar
    24    31    32   ar
    25    32    33   ar
    26    33    36    1
    27    36    37    1
    28    36    38    1
    29    33    34   ar
    30    34    35   ar
    31     4     8    1
    32     8     9    1
    33    14    15    1
    34    15    16    1
    35    24    25   ar
    36    25    26    1
    37    25    19   ar
    38    16    11    1
    39     9     1    1
    40    35    30   ar
    41     7    10    1
