@<TRIPOS>MOLECULE
*****
 30 33 0 0 0
SMALL
GASTEIGER

@<TRIPOS>ATOM
      1 O         138.8551  139.2340  159.7662 O.2     1  UNL1       -0.2665
      2 C         140.2595  138.7104  159.8261 C.ar    1  UNL1        0.2679
      3 C         141.0230  138.4648  158.5585 C.ar    1  UNL1        0.0980
      4 C         142.4274  137.9412  158.6183 C.ar    1  UNL1        0.1453
      5 C         143.0683  137.6632  159.9457 C.ar    1  UNL1        0.0561
      6 C         142.3047  137.9087  161.2132 C.ar    1  UNL1        0.0860
      7 N         140.9004  138.4323  161.1534 N.ar    1  UNL1       -0.2729
      8 C         140.1369  138.6779  162.4211 C.ar    1  UNL1        0.0671
      9 C         139.6562  137.5192  163.2435 C.ar    1  UNL1        0.0207
     10 C         138.8928  137.7647  164.5111 C.ar    1  UNL1        0.0384
     11 C         138.6099  139.1690  164.9563 C.ar    1  UNL1        0.1387
     12 C         139.0905  140.3277  164.1338 C.ar    1  UNL1        0.0384
     13 C         139.8540  140.0821  162.8662 C.ar    1  UNL1        0.0207
     14 O         137.8464  139.4145  166.2239 O.3     1  UNL1       -0.4740
     15 C         138.5526  139.3651  167.5463 C.3     1  UNL1        0.2226
     16 C         139.8794  140.0446  167.7139 C.3     1  UNL1        0.1200
     17 N         139.9971  141.2531  168.5945 N.3     1  UNL1       -0.2696
     18 C         139.5861  141.3382  170.0346 C.3     1  UNL1        0.0722
     19 C         139.8816  142.7265  170.5197 C.3     1  UNL1        0.0188
     20 C         140.4751  143.4995  169.3795 C.3     1  UNL1        0.0188
     21 C         140.5465  142.5889  168.1896 C.3     1  UNL1        0.0722
     22 O         143.1909  137.6956  157.3507 O.3     1  UNL1       -0.4704
     23 C         142.5530  136.9347  156.2264 C.3     1  UNL1        0.2320
     24 C         142.5239  135.4354  156.2570 C.ar    1  UNL1        0.0213
     25 C         143.3925  134.6880  157.2250 C.ar    1  UNL1        0.0016
     26 C         143.3635  133.1885  157.2555 C.ar    1  UNL1        0.0294
     27 C         142.4658  132.4365  156.3182 C.ar    1  UNL1        0.1401
     28 F         142.4368  130.9372  156.3488 F       1  UNL1       -0.2042
     29 C         141.5972  133.1839  155.3502 C.ar    1  UNL1        0.0294
     30 C         141.6262  134.6833  155.3196 C.ar    1  UNL1        0.0016
@<TRIPOS>BOND
     1     1     2    2
     2     2     3   ar
     3     3     4   ar
     4     4    22    1
     5    22    23    1
     6    23    24    1
     7    24    25   ar
     8    25    26   ar
     9    26    27   ar
    10    27    28    1
    11    27    29   ar
    12    29    30   ar
    13     4     5   ar
    14     5     6   ar
    15     6     7   ar
    16     7     8    1
    17     8     9   ar
    18     9    10   ar
    19    10    11   ar
    20    11    14    1
    21    14    15    1
    22    15    16    1
    23    16    17    1
    24    17    18    1
    25    18    19    1
    26    19    20    1
    27    20    21    1
    28    11    12   ar
    29    12    13   ar
    30     7     2   ar
    31    13     8   ar
    32    30    24   ar
    33    21    17    1
@<TRIPOS>MOLECULE
*****
 30 33 0 0 0
SMALL
GASTEIGER

@<TRIPOS>ATOM
      1 O         139.6684  137.5773  161.8474 O.2     1  UNL1       -0.2665
      2 C         139.1950  138.9611  161.5143 C.ar    1  UNL1        0.2679
      3 C         138.3034  139.6988  162.4686 C.ar    1  UNL1        0.0980
      4 C         137.8300  141.0826  162.1355 C.ar    1  UNL1        0.1453
      5 C         138.2483  141.7288  160.8481 C.ar    1  UNL1        0.0561
      6 C         139.1399  140.9911  159.8938 C.ar    1  UNL1        0.0860
      7 N         139.6133  139.6073  160.2269 N.ar    1  UNL1       -0.2729
      8 C         140.5050  138.8696  159.2725 C.ar    1  UNL1        0.0671
      9 C         141.9696  138.7340  159.5669 C.ar    1  UNL1        0.0207
     10 C         142.8613  137.9964  158.6126 C.ar    1  UNL1        0.0384
     11 C         142.2884  137.3944  157.3638 C.ar    1  UNL1        0.1387
     12 C         140.8239  137.5300  157.0693 C.ar    1  UNL1        0.0384
     13 C         139.9322  138.2677  158.0238 C.ar    1  UNL1        0.0207
     14 O         143.1801  136.6568  156.4094 O.3     1  UNL1       -0.4740
     15 C         142.6148  135.5729  155.5402 C.3     1  UNL1        0.2226
     16 C         142.3356  134.2172  156.1181 C.3     1  UNL1        0.1200
     17 N         143.4713  133.3366  156.5479 N.3     1  UNL1       -0.2696
     18 C         144.2095  133.4227  157.8509 C.3     1  UNL1        0.0722
     19 C         145.2626  132.3546  157.8584 C.3     1  UNL1        0.0188
     20 C         145.1754  131.6084  156.5601 C.3     1  UNL1        0.0188
     21 C         144.0683  132.2153  155.7502 C.3     1  UNL1        0.0722
     22 O         136.9383  141.8202  163.0899 O.3     1  UNL1       -0.4704
     23 C         137.5256  142.5040  164.2889 C.3     1  UNL1        0.2320
     24 C         138.8069  143.2732  164.1609 C.ar    1  UNL1        0.0213
     25 C         140.0345  142.8120  164.8892 C.ar    1  UNL1        0.0016
     26 C         141.3159  143.5813  164.7611 C.ar    1  UNL1        0.0294
     27 C         141.3697  144.8117  163.9049 C.ar    1  UNL1        0.1401
     28 F         142.6510  145.5809  163.7769 F       1  UNL1       -0.2042
     29 C         140.1421  145.2729  163.1767 C.ar    1  UNL1        0.0294
     30 C         138.8607  144.5037  163.3047 C.ar    1  UNL1        0.0016
@<TRIPOS>BOND
     1     1     2    2
     2     2     3   ar
     3     3     4   ar
     4     4    22    1
     5    22    23    1
     6    23    24    1
     7    24    25   ar
     8    25    26   ar
     9    26    27   ar
    10    27    28    1
    11    27    29   ar
    12    29    30   ar
    13     4     5   ar
    14     5     6   ar
    15     6     7   ar
    16     7     8    1
    17     8     9   ar
    18     9    10   ar
    19    10    11   ar
    20    11    14    1
    21    14    15    1
    22    15    16    1
    23    16    17    1
    24    17    18    1
    25    18    19    1
    26    19    20    1
    27    20    21    1
    28    11    12   ar
    29    12    13   ar
    30     7     2   ar
    31    13     8   ar
    32    30    24   ar
    33    21    17    1
@<TRIPOS>MOLECULE
*****
 30 33 0 0 0
SMALL
GASTEIGER

@<TRIPOS>ATOM
      1 O         139.3359  141.2038  161.3569 O.2     1  UNL1       -0.2665
      2 C         139.3079  140.0678  162.3360 C.ar    1  UNL1        0.2679
      3 C         138.6753  140.2542  163.6832 C.ar    1  UNL1        0.0980
      4 C         138.6473  139.1182  164.6623 C.ar    1  UNL1        0.1453
      5 C         139.2519  137.7958  164.2943 C.ar    1  UNL1        0.0561
      6 C         139.8846  137.6094  162.9471 C.ar    1  UNL1        0.0860
      7 N         139.9126  138.7454  161.9680 N.ar    1  UNL1       -0.2729
      8 C         140.5453  138.5589  160.6207 C.ar    1  UNL1        0.0671
      9 C         139.6930  138.5520  159.3864 C.ar    1  UNL1        0.0207
     10 C         140.3256  138.3656  158.0392 C.ar    1  UNL1        0.0384
     11 C         141.8105  138.1859  157.9263 C.ar    1  UNL1        0.1387
     12 C         142.6628  138.1928  159.1606 C.ar    1  UNL1        0.0384
     13 C         142.0302  138.3793  160.5078 C.ar    1  UNL1        0.0207
     14 O         142.4431  137.9995  156.5791 O.3     1  UNL1       -0.4740
     15 C         142.9120  136.6400  156.1523 C.3     1  UNL1        0.2226
     16 C         141.9929  135.4600  156.2654 C.3     1  UNL1        0.1200
     17 N         142.5594  134.0824  156.4427 N.3     1  UNL1       -0.2696
     18 C         143.6829  133.7025  157.3612 C.3     1  UNL1        0.0722
     19 C         143.9196  132.2282  157.2187 C.3     1  UNL1        0.0188
     20 C         142.9425  131.6969  156.2122 C.3     1  UNL1        0.0188
     21 C         142.1018  132.8429  155.7326 C.3     1  UNL1        0.0722
     22 O         138.0146  139.3047  166.0096 O.3     1  UNL1       -0.4704
     23 C         138.8420  139.1634  167.2528 C.3     1  UNL1        0.2320
     24 C         139.4022  140.3825  167.9235 C.ar    1  UNL1        0.0213
     25 C         139.2821  140.5426  169.4101 C.ar    1  UNL1        0.0016
     26 C         139.8423  141.7618  170.0808 C.ar    1  UNL1        0.0294
     27 C         140.5225  142.8208  169.2650 C.ar    1  UNL1        0.1401
     28 F         141.0827  144.0399  169.9357 F       1  UNL1       -0.2042
     29 C         140.6426  142.6607  167.7784 C.ar    1  UNL1        0.0294
     30 C         140.0824  141.4416  167.1076 C.ar    1  UNL1        0.0016
@<TRIPOS>BOND
     1     1     2    2
     2     2     3   ar
     3     3     4   ar
     4     4    22    1
     5    22    23    1
     6    23    24    1
     7    24    25   ar
     8    25    26   ar
     9    26    27   ar
    10    27    28    1
    11    27    29   ar
    12    29    30   ar
    13     4     5   ar
    14     5     6   ar
    15     6     7   ar
    16     7     8    1
    17     8     9   ar
    18     9    10   ar
    19    10    11   ar
    20    11    14    1
    21    14    15    1
    22    15    16    1
    23    16    17    1
    24    17    18    1
    25    18    19    1
    26    19    20    1
    27    20    21    1
    28    11    12   ar
    29    12    13   ar
    30     7     2   ar
    31    13     8   ar
    32    30    24   ar
    33    21    17    1
@<TRIPOS>MOLECULE
*****
 30 33 0 0 0
SMALL
GASTEIGER

@<TRIPOS>ATOM
      1 O         139.1763  146.5475  161.1827 O.2     1  UNL1       -0.2665
      2 C         139.8726  145.3526  161.7635 C.ar    1  UNL1        0.2679
      3 C         139.8429  145.1135  163.2440 C.ar    1  UNL1        0.0980
      4 C         140.5392  143.9186  163.8249 C.ar    1  UNL1        0.1453
      5 C         141.2651  142.9628  162.9253 C.ar    1  UNL1        0.0561
      6 C         141.2948  143.2019  161.4448 C.ar    1  UNL1        0.0860
      7 N         140.5985  144.3968  160.8639 N.ar    1  UNL1       -0.2729
      8 C         140.6282  144.6358  159.3833 C.ar    1  UNL1        0.0671
      9 C         141.6110  145.6075  158.8001 C.ar    1  UNL1        0.0207
     10 C         141.6407  145.8466  157.3196 C.ar    1  UNL1        0.0384
     11 C         140.6877  145.1140  156.4223 C.ar    1  UNL1        0.1387
     12 C         139.7050  144.1423  157.0055 C.ar    1  UNL1        0.0384
     13 C         139.6753  143.9033  158.4861 C.ar    1  UNL1        0.0207
     14 O         140.7175  145.3531  154.9418 O.3     1  UNL1       -0.4740
     15 C         140.2086  146.6478  154.3808 C.3     1  UNL1        0.2226
     16 C         139.1602  147.4250  155.1201 C.3     1  UNL1        0.1200
     17 N         139.1173  148.9203  155.0090 N.3     1  UNL1       -0.2696
     18 C         139.7392  149.7416  153.9186 C.3     1  UNL1        0.0722
     19 C         139.4512  151.1857  154.2044 C.3     1  UNL1        0.0188
     20 C         138.6514  151.2569  155.4714 C.3     1  UNL1        0.0188
     21 C         138.4450  149.8568  155.9686 C.3     1  UNL1        0.0722
     22 O         140.5094  143.6795  165.3055 O.3     1  UNL1       -0.4704
     23 C         141.0175  142.3844  165.8664 C.3     1  UNL1        0.2320
     24 C         140.0566  141.2791  166.1902 C.ar    1  UNL1        0.0213
     25 C         139.9619  140.7543  167.5922 C.ar    1  UNL1        0.0016
     26 C         139.0010  139.6489  167.9160 C.ar    1  UNL1        0.0294
     27 C         138.1348  139.0683  166.8378 C.ar    1  UNL1        0.1401
     28 F         137.1739  137.9630  167.1616 F       1  UNL1       -0.2042
     29 C         138.2295  139.5931  165.4358 C.ar    1  UNL1        0.0294
     30 C         139.1904  140.6984  165.1120 C.ar    1  UNL1        0.0016
@<TRIPOS>BOND
     1     1     2    2
     2     2     3   ar
     3     3     4   ar
     4     4    22    1
     5    22    23    1
     6    23    24    1
     7    24    25   ar
     8    25    26   ar
     9    26    27   ar
    10    27    28    1
    11    27    29   ar
    12    29    30   ar
    13     4     5   ar
    14     5     6   ar
    15     6     7   ar
    16     7     8    1
    17     8     9   ar
    18     9    10   ar
    19    10    11   ar
    20    11    14    1
    21    14    15    1
    22    15    16    1
    23    16    17    1
    24    17    18    1
    25    18    19    1
    26    19    20    1
    27    20    21    1
    28    11    12   ar
    29    12    13   ar
    30     7     2   ar
    31    13     8   ar
    32    30    24   ar
    33    21    17    1
@<TRIPOS>MOLECULE
*****
 30 33 0 0 0
SMALL
GASTEIGER

@<TRIPOS>ATOM
      1 O         137.5643  144.3854  162.7066 O.2     1  UNL1       -0.2665
      2 C         138.1526  143.0133  162.8522 C.ar    1  UNL1        0.2679
      3 C         137.7219  142.1289  163.9846 C.ar    1  UNL1        0.0980
      4 C         138.3102  140.7568  164.1302 C.ar    1  UNL1        0.1453
      5 C         139.3292  140.2691  163.1435 C.ar    1  UNL1        0.0561
      6 C         139.7599  141.1535  162.0111 C.ar    1  UNL1        0.0860
      7 N         139.1716  142.5256  161.8655 N.ar    1  UNL1       -0.2729
      8 C         139.6023  143.4100  160.7330 C.ar    1  UNL1        0.0671
      9 C         139.2098  143.0710  159.3256 C.ar    1  UNL1        0.0207
     10 C         139.6405  143.9553  158.1931 C.ar    1  UNL1        0.0384
     11 C         140.4638  145.1787  158.4682 C.ar    1  UNL1        0.1387
     12 C         140.8563  145.5177  159.8756 C.ar    1  UNL1        0.0384
     13 C         140.4256  144.6333  161.0081 C.ar    1  UNL1        0.0207
     14 O         140.8945  146.0630  157.3357 O.3     1  UNL1       -0.4740
     15 C         140.2049  145.9694  156.0069 C.3     1  UNL1        0.2226
     16 C         138.9316  146.7252  155.7678 C.3     1  UNL1        0.1200
     17 N         138.9702  148.2080  155.5445 N.3     1  UNL1       -0.2696
     18 C         138.4013  149.2524  156.4588 C.3     1  UNL1        0.0722
     19 C         138.6640  150.5966  155.8471 C.3     1  UNL1        0.0188
     20 C         139.3952  150.3830  154.5549 C.3     1  UNL1        0.0188
     21 C         139.5844  148.9068  154.3679 C.3     1  UNL1        0.0722
     22 O         137.8795  139.8724  165.2627 O.3     1  UNL1       -0.4704
     23 C         138.8625  138.9335  165.8968 C.3     1  UNL1        0.2320
     24 C         139.9696  139.4728  166.7531 C.ar    1  UNL1        0.0213
     25 C         141.3910  139.3909  166.2808 C.ar    1  UNL1        0.0016
     26 C         142.4982  139.9302  167.1373 C.ar    1  UNL1        0.0294
     27 C         142.1839  140.5514  168.4659 C.ar    1  UNL1        0.1401
     28 F         143.2911  141.0907  169.3222 F       1  UNL1       -0.2042
     29 C         140.7626  140.6333  168.9382 C.ar    1  UNL1        0.0294
     30 C         139.6555  140.0941  168.0818 C.ar    1  UNL1        0.0016
@<TRIPOS>BOND
     1     1     2    2
     2     2     3   ar
     3     3     4   ar
     4     4    22    1
     5    22    23    1
     6    23    24    1
     7    24    25   ar
     8    25    26   ar
     9    26    27   ar
    10    27    28    1
    11    27    29   ar
    12    29    30   ar
    13     4     5   ar
    14     5     6   ar
    15     6     7   ar
    16     7     8    1
    17     8     9   ar
    18     9    10   ar
    19    10    11   ar
    20    11    14    1
    21    14    15    1
    22    15    16    1
    23    16    17    1
    24    17    18    1
    25    18    19    1
    26    19    20    1
    27    20    21    1
    28    11    12   ar
    29    12    13   ar
    30     7     2   ar
    31    13     8   ar
    32    30    24   ar
    33    21    17    1
@<TRIPOS>MOLECULE
*****
 30 33 0 0 0
SMALL
GASTEIGER

@<TRIPOS>ATOM
      1 O         143.9558  144.8913  162.7688 O.2     1  UNL1       -0.2665
      2 C         143.1817  143.6728  163.1761 C.ar    1  UNL1        0.2679
      3 C         143.5150  142.9657  164.4563 C.ar    1  UNL1        0.0980
      4 C         142.7409  141.7472  164.8636 C.ar    1  UNL1        0.1453
      5 C         141.6335  141.2357  163.9908 C.ar    1  UNL1        0.0561
      6 C         141.3001  141.9428  162.7106 C.ar    1  UNL1        0.0860
      7 N         142.0742  143.1613  162.3033 N.ar    1  UNL1       -0.2729
      8 C         141.7408  143.8684  161.0230 C.ar    1  UNL1        0.0671
      9 C         142.4731  143.5199  159.7612 C.ar    1  UNL1        0.0207
     10 C         142.1398  144.2269  158.4809 C.ar    1  UNL1        0.0384
     11 C         141.0741  145.2824  158.4626 C.ar    1  UNL1        0.1387
     12 C         140.3419  145.6309  159.7245 C.ar    1  UNL1        0.0384
     13 C         140.6753  144.9239  161.0047 C.ar    1  UNL1        0.0207
     14 O         140.7408  145.9894  157.1824 O.3     1  UNL1       -0.4740
     15 C         139.5096  146.8418  157.0949 C.3     1  UNL1        0.2226
     16 C         138.9733  147.2495  155.7547 C.3     1  UNL1        0.1200
     17 N         139.0304  148.6868  155.3297 N.3     1  UNL1       -0.2696
     18 C         138.4151  149.8462  156.0560 C.3     1  UNL1        0.0722
     19 C         138.7173  151.0931  155.2788 C.3     1  UNL1        0.0188
     20 C         139.5192  150.7044  154.0723 C.3     1  UNL1        0.0188
     21 C         139.7127  149.2173  154.1037 C.3     1  UNL1        0.0722
     22 O         143.0743  141.0401  166.1439 O.3     1  UNL1       -0.4704
     23 C         141.9950  140.3454  166.9200 C.3     1  UNL1        0.2320
     24 C         141.2677  141.0743  168.0107 C.ar    1  UNL1        0.0213
     25 C         140.2006  140.3741  168.7987 C.ar    1  UNL1        0.0016
     26 C         139.4734  141.1032  169.8894 C.ar    1  UNL1        0.0294
     27 C         139.8132  142.5324  170.1921 C.ar    1  UNL1        0.1401
     28 F         139.0860  143.2614  171.2828 F       1  UNL1       -0.2042
     29 C         140.8803  143.2327  169.4041 C.ar    1  UNL1        0.0294
     30 C         141.6075  142.5037  168.3134 C.ar    1  UNL1        0.0016
@<TRIPOS>BOND
     1     1     2    2
     2     2     3   ar
     3     3     4   ar
     4     4    22    1
     5    22    23    1
     6    23    24    1
     7    24    25   ar
     8    25    26   ar
     9    26    27   ar
    10    27    28    1
    11    27    29   ar
    12    29    30   ar
    13     4     5   ar
    14     5     6   ar
    15     6     7   ar
    16     7     8    1
    17     8     9   ar
    18     9    10   ar
    19    10    11   ar
    20    11    14    1
    21    14    15    1
    22    15    16    1
    23    16    17    1
    24    17    18    1
    25    18    19    1
    26    19    20    1
    27    20    21    1
    28    11    12   ar
    29    12    13   ar
    30     7     2   ar
    31    13     8   ar
    32    30    24   ar
    33    21    17    1
@<TRIPOS>MOLECULE
*****
 30 33 0 0 0
SMALL
GASTEIGER

@<TRIPOS>ATOM
      1 O         143.1034  137.9522  161.8783 O.2     1  UNL1       -0.2665
      2 C         142.1063  138.1101  160.7688 C.ar    1  UNL1        0.2679
      3 C         142.5294  137.9018  159.3449 C.ar    1  UNL1        0.0980
      4 C         141.5324  138.0596  158.2354 C.ar    1  UNL1        0.1453
      5 C         140.1122  138.4258  158.5498 C.ar    1  UNL1        0.0561
      6 C         139.6890  138.6341  159.9737 C.ar    1  UNL1        0.0860
      7 N         140.6861  138.4762  161.0832 N.ar    1  UNL1       -0.2729
      8 C         140.2629  138.6846  162.5071 C.ar    1  UNL1        0.0671
      9 C         140.1193  137.5082  163.4266 C.ar    1  UNL1        0.0207
     10 C         139.6961  137.7164  164.8505 C.ar    1  UNL1        0.0384
     11 C         139.4165  139.1011  165.3550 C.ar    1  UNL1        0.1387
     12 C         139.5601  140.2776  164.4355 C.ar    1  UNL1        0.0384
     13 C         139.9833  140.0692  163.0115 C.ar    1  UNL1        0.0207
     14 O         138.9933  139.3094  166.7789 O.3     1  UNL1       -0.4740
     15 C         139.8186  140.1706  167.6883 C.3     1  UNL1        0.2226
     16 C         141.2539  139.8233  167.9517 C.3     1  UNL1        0.1200
     17 N         142.2537  139.8682  166.8344 N.3     1  UNL1       -0.2696
     18 C         142.9886  138.6929  166.2610 C.3     1  UNL1        0.0722
     19 C         143.8832  139.1947  165.1665 C.3     1  UNL1        0.0188
     20 C         143.7012  140.6800  165.0634 C.3     1  UNL1        0.0188
     21 C         142.6941  141.0963  166.0942 C.3     1  UNL1        0.0722
     22 O         141.9556  137.8513  156.8114 O.3     1  UNL1       -0.4704
     23 C         143.0642  136.8929  156.4911 C.3     1  UNL1        0.2320
     24 C         142.7732  135.4276  156.3561 C.ar    1  UNL1        0.0213
     25 C         143.5562  134.4306  157.1578 C.ar    1  UNL1        0.0016
     26 C         143.2652  132.9652  157.0228 C.ar    1  UNL1        0.0294
     27 C         142.1912  132.4970  156.0862 C.ar    1  UNL1        0.1401
     28 F         141.9003  131.0317  155.9513 F       1  UNL1       -0.2042
     29 C         141.4082  133.4941  155.2846 C.ar    1  UNL1        0.0294
     30 C         141.6991  134.9594  155.4195 C.ar    1  UNL1        0.0016
@<TRIPOS>BOND
     1     1     2    2
     2     2     3   ar
     3     3     4   ar
     4     4    22    1
     5    22    23    1
     6    23    24    1
     7    24    25   ar
     8    25    26   ar
     9    26    27   ar
    10    27    28    1
    11    27    29   ar
    12    29    30   ar
    13     4     5   ar
    14     5     6   ar
    15     6     7   ar
    16     7     8    1
    17     8     9   ar
    18     9    10   ar
    19    10    11   ar
    20    11    14    1
    21    14    15    1
    22    15    16    1
    23    16    17    1
    24    17    18    1
    25    18    19    1
    26    19    20    1
    27    20    21    1
    28    11    12   ar
    29    12    13   ar
    30     7     2   ar
    31    13     8   ar
    32    30    24   ar
    33    21    17    1
@<TRIPOS>MOLECULE
*****
 30 33 0 0 0
SMALL
GASTEIGER

@<TRIPOS>ATOM
      1 O         140.6944  141.3060  164.6504 O.2     1  UNL1       -0.2665
      2 C         139.7842  140.4289  165.4579 C.ar    1  UNL1        0.2679
      3 C         139.8000  140.5086  166.9556 C.ar    1  UNL1        0.0980
      4 C         138.8898  139.6314  167.7631 C.ar    1  UNL1        0.1453
      5 C         137.9637  138.6745  167.0728 C.ar    1  UNL1        0.0561
      6 C         137.9478  138.5948  165.5750 C.ar    1  UNL1        0.0860
      7 N         138.8581  139.4719  164.7676 N.ar    1  UNL1       -0.2729
      8 C         138.8422  139.3922  163.2697 C.ar    1  UNL1        0.0671
      9 C         138.1307  140.4431  162.4702 C.ar    1  UNL1        0.0207
     10 C         138.1148  140.3634  160.9724 C.ar    1  UNL1        0.0384
     11 C         138.8104  139.2326  160.2741 C.ar    1  UNL1        0.1387
     12 C         139.5219  138.1816  161.0736 C.ar    1  UNL1        0.0384
     13 C         139.5377  138.2614  162.5715 C.ar    1  UNL1        0.0207
     14 O         138.7945  139.1529  158.7763 O.3     1  UNL1       -0.4740
     15 C         139.9240  139.7387  157.9820 C.3     1  UNL1        0.2226
     16 C         141.2734  139.0838  158.0016 C.3     1  UNL1        0.1200
     17 N         141.5045  137.8191  157.2289 N.3     1  UNL1       -0.2696
     18 C         142.7311  136.9579  157.2939 C.3     1  UNL1        0.0722
     19 C         142.5343  135.8001  156.3607 C.3     1  UNL1        0.0188
     20 C         141.1863  135.9457  155.7191 C.3     1  UNL1        0.0188
     21 C         140.5499  137.1935  156.2557 C.3     1  UNL1        0.0722
     22 O         138.9057  139.7112  169.2609 O.3     1  UNL1       -0.4704
     23 C         139.2830  140.9946  169.9396 C.3     1  UNL1        0.2320
     24 C         140.7195  141.4237  169.9873 C.ar    1  UNL1        0.0213
     25 C         141.0657  142.8828  170.0206 C.ar    1  UNL1        0.0016
     26 C         142.5023  143.3118  170.0682 C.ar    1  UNL1        0.0294
     27 C         143.5926  142.2818  170.0825 C.ar    1  UNL1        0.1401
     28 F         145.0290  142.7109  170.1301 F       1  UNL1       -0.2042
     29 C         143.2464  140.8227  170.0491 C.ar    1  UNL1        0.0294
     30 C         141.8099  140.3936  170.0015 C.ar    1  UNL1        0.0016
@<TRIPOS>BOND
     1     1     2    2
     2     2     3   ar
     3     3     4   ar
     4     4    22    1
     5    22    23    1
     6    23    24    1
     7    24    25   ar
     8    25    26   ar
     9    26    27   ar
    10    27    28    1
    11    27    29   ar
    12    29    30   ar
    13     4     5   ar
    14     5     6   ar
    15     6     7   ar
    16     7     8    1
    17     8     9   ar
    18     9    10   ar
    19    10    11   ar
    20    11    14    1
    21    14    15    1
    22    15    16    1
    23    16    17    1
    24    17    18    1
    25    18    19    1
    26    19    20    1
    27    20    21    1
    28    11    12   ar
    29    12    13   ar
    30     7     2   ar
    31    13     8   ar
    32    30    24   ar
    33    21    17    1
@<TRIPOS>MOLECULE
*****
 30 33 0 0 0
SMALL
GASTEIGER

@<TRIPOS>ATOM
      1 O         140.6590  145.7734  161.1851 O.2     1  UNL1       -0.2665
      2 C         140.2711  145.0524  159.9283 C.ar    1  UNL1        0.2679
      3 C         140.4600  145.7140  158.5954 C.ar    1  UNL1        0.0980
      4 C         140.0721  144.9930  157.3385 C.ar    1  UNL1        0.1453
      5 C         139.4954  143.6104  157.4145 C.ar    1  UNL1        0.0561
      6 C         139.3066  142.9488  158.7474 C.ar    1  UNL1        0.0860
      7 N         139.6944  143.6698  160.0043 N.ar    1  UNL1       -0.2729
      8 C         139.5056  143.0082  161.3372 C.ar    1  UNL1        0.0671
      9 C         138.2119  143.1711  162.0788 C.ar    1  UNL1        0.0207
     10 C         138.0230  142.5095  163.4116 C.ar    1  UNL1        0.0384
     11 C         139.1278  141.6849  164.0030 C.ar    1  UNL1        0.1387
     12 C         140.4214  141.5220  163.2614 C.ar    1  UNL1        0.0384
     13 C         140.6103  142.1837  161.9285 C.ar    1  UNL1        0.0207
     14 O         138.9389  141.0233  165.3358 O.3     1  UNL1       -0.4740
     15 C         138.0803  139.7987  165.4503 C.3     1  UNL1        0.2226
     16 C         138.7050  138.4363  165.3889 C.3     1  UNL1        0.1200
     17 N         139.7670  138.1434  164.3709 N.3     1  UNL1       -0.2696
     18 C         141.2389  138.0343  164.6386 C.3     1  UNL1        0.0722
     19 C         141.9251  137.7316  163.3395 C.3     1  UNL1        0.0188
     20 C         140.8773  137.6536  162.2689 C.3     1  UNL1        0.0188
     21 C         139.5435  137.9081  162.9064 C.3     1  UNL1        0.0722
     22 O         140.2610  145.6547  156.0056 O.3     1  UNL1       -0.4704
     23 C         139.1268  146.4060  155.3739 C.3     1  UNL1        0.2320
     24 C         139.0408  147.8964  155.5201 C.ar    1  UNL1        0.0213
     25 C         138.5032  148.4961  156.7855 C.ar    1  UNL1        0.0016
     26 C         138.4172  149.9865  156.9317 C.ar    1  UNL1        0.0294
     27 C         138.8688  150.8772  155.8124 C.ar    1  UNL1        0.1401
     28 F         138.7828  152.3675  155.9586 F       1  UNL1       -0.2042
     29 C         139.4065  150.2775  154.5470 C.ar    1  UNL1        0.0294
     30 C         139.4925  148.7871  154.4008 C.ar    1  UNL1        0.0016
@<TRIPOS>BOND
     1     1     2    2
     2     2     3   ar
     3     3     4   ar
     4     4    22    1
     5    22    23    1
     6    23    24    1
     7    24    25   ar
     8    25    26   ar
     9    26    27   ar
    10    27    28    1
    11    27    29   ar
    12    29    30   ar
    13     4     5   ar
    14     5     6   ar
    15     6     7   ar
    16     7     8    1
    17     8     9   ar
    18     9    10   ar
    19    10    11   ar
    20    11    14    1
    21    14    15    1
    22    15    16    1
    23    16    17    1
    24    17    18    1
    25    18    19    1
    26    19    20    1
    27    20    21    1
    28    11    12   ar
    29    12    13   ar
    30     7     2   ar
    31    13     8   ar
    32    30    24   ar
    33    21    17    1
