@<TRIPOS>MOLECULE
*****
 39 41 0 0 0
SMALL
GASTEIGER

@<TRIPOS>ATOM
      1 C         143.6169  140.2856  164.6785 C.3     1  UNL1        0.1194
      2 C         143.8427  138.8158  164.8749 C.3     1  UNL1        0.0802
      3 N         143.5776  138.1883  166.2113 N.3     1  UNL1       -0.2965
      4 C         143.0867  139.0306  167.3512 C.3     1  UNL1        0.0802
      5 C         142.8609  140.5004  167.1548 C.3     1  UNL1        0.1200
      6 C         143.1260  141.1279  165.8184 C.3     1  UNL1        0.1303
      7 O         142.9002  142.5978  165.6220 O.3     1  UNL1       -0.3834
      8 H         144.4531  137.7624  166.5155 H       1  UNL1        0.1233
      9 H         142.5855  142.9902  166.4513 H       1  UNL1        0.2104
     10 N         142.7451  141.4637  162.5333 N.am    1  UNL1       -0.3034
     11 C         143.8820  140.9131  163.3421 C.2     1  UNL1        0.2258
     12 O         145.2840  140.9899  162.8144 O.2     1  UNL1       -0.2750
     13 H         141.8249  141.4133  162.8796 H       1  UNL1        0.1495
     14 C         143.0102  142.0913  161.1969 C.3     1  UNL1        0.1011
     15 C         143.0353  141.2415  159.9611 C.3     1  UNL1        0.1615
     16 O         142.7829  139.7662  160.0600 O.3     1  UNL1       -0.3520
     17 C         143.8307  137.7705  161.3520 C.3     1  UNL1        0.0346
     18 C         143.9269  138.8232  160.2878 C.3     1  UNL1        0.1423
     19 C         143.2503  143.5686  161.0963 C.3     1  UNL1        0.0221
     20 C         142.8212  144.4757  162.2113 C.3     1  UNL1        0.0017
     21 C         141.3820  144.8790  162.3382 C.3     1  UNL1        0.0001
     22 C         143.8313  144.9794  163.1992 C.3     1  UNL1        0.0001
     23 C         142.3700  141.3428  168.2948 C.2     1  UNL1        0.2336
     24 O         143.2453  141.5686  169.4917 O.2     1  UNL1       -0.2744
     25 N         141.0038  141.9593  168.2377 N.am    1  UNL1       -0.2454
     26 C         140.1284  141.7335  167.0406 C.ar    1  UNL1        0.1404
     27 C         139.5170  140.3846  166.8024 C.ar    1  UNL1        0.0712
     28 C         138.6417  140.1588  165.6055 C.ar    1  UNL1        0.1388
     29 C         138.3779  141.2817  164.6467 C.ar    1  UNL1        0.0310
     30 C         138.9893  142.6306  164.8849 C.ar    1  UNL1        0.0990
     31 N         139.8646  142.8565  166.0819 N.ar    1  UNL1       -0.2289
     32 C         137.5025  141.0559  163.4496 C.3     1  UNL1        0.0310
     33 C         137.8391  141.7069  162.1409 C.3     1  UNL1        0.0052
     34 O         138.0302  138.8099  165.3673 O.3     1  UNL1       -0.4756
     35 C         138.8743  137.6856  164.8445 C.3     1  UNL1        0.2055
     36 C         139.2986  137.6724  163.4058 C.3     1  UNL1        0.0512
     37 C         140.5129  142.8017  169.3776 C.3     1  UNL1        0.0813
     38 C         140.3987  144.1372  170.0509 C.3     1  UNL1        0.0219
     39 C         139.7767  142.9252  170.6786 C.3     1  UNL1        0.0219
@<TRIPOS>BOND
     1    17    18    1
     2    18    16    1
     3    16    15    1
     4    14    15    1
     5    14    19    1
     6    19    20    1
     7    20    21    1
     8    20    22    1
     9    14    10    1
    10    10    11   am
    11    11    12    2
    12     1    11    1
    13     1     2    1
    14     2     3    1
    15     3     4    1
    16     4     5    1
    17     5    23    1
    18    23    24    2
    19    23    25   am
    20    25    26    1
    21    26    27   ar
    22    27    28   ar
    23    28    34    1
    24    34    35    1
    25    35    36    1
    26    28    29   ar
    27    29    32    1
    28    32    33    1
    29    29    30   ar
    30    30    31   ar
    31    25    37    1
    32    37    38    1
    33    38    39    1
    34     5     6    1
    35     6     7    1
    36     6     1    1
    37    31    26   ar
    38    39    37    1
    39    10    13    1
    40     3     8    1
    41     7     9    1
@<TRIPOS>MOLECULE
*****
 39 41 0 0 0
SMALL
GASTEIGER

@<TRIPOS>ATOM
      1 C         138.9859  141.2056  164.6628 C.3     1  UNL1        0.1194
      2 C         137.7968  142.0194  164.2463 C.3     1  UNL1        0.0802
      3 N         137.2838  141.9322  162.8394 N.3     1  UNL1       -0.2965
      4 C         137.9601  141.0311  161.8491 C.3     1  UNL1        0.0802
      5 C         139.1492  140.2173  162.2656 C.3     1  UNL1        0.1200
      6 C         139.6622  140.3046  163.6725 C.3     1  UNL1        0.1303
      7 O         140.8514  139.4907  164.0890 O.3     1  UNL1       -0.3834
      8 H         137.3218  142.8754  162.4531 H       1  UNL1        0.1233
      9 H         141.1652  138.9674  163.3350 H       1  UNL1        0.2104
     10 N         139.6262  140.0502  166.9000 N.am    1  UNL1       -0.3034
     11 C         139.4988  141.2929  166.0697 C.2     1  UNL1        0.2258
     12 O         139.8844  142.6228  166.6463 O.2     1  UNL1       -0.2750
     13 H         139.3731  139.1772  166.5215 H       1  UNL1        0.1495
     14 C         140.1391  140.1374  168.3068 C.3     1  UNL1        0.1011
     15 C         139.1993  140.4662  169.4287 C.3     1  UNL1        0.1615
     16 O         139.6841  141.2617  170.6044 O.3     1  UNL1       -0.3520
     17 C         140.9741  143.3884  169.8542 C.3     1  UNL1        0.0346
     18 C         139.7827  142.7554  170.5100 C.3     1  UNL1        0.1423
     19 C         141.5919  139.8959  168.5918 C.3     1  UNL1        0.0221
     20 C         142.6054  140.0411  167.4956 C.3     1  UNL1        0.0017
     21 C         143.1707  138.8214  166.8303 C.3     1  UNL1        0.0001
     22 C         143.0537  141.4062  167.0647 C.3     1  UNL1        0.0001
     23 C         139.8255  139.3162  161.2753 C.2     1  UNL1        0.2336
     24 O         139.1242  138.0866  160.7791 O.2     1  UNL1       -0.2744
     25 N         141.2032  139.6448  160.7812 N.am    1  UNL1       -0.2454
     26 C         141.9045  140.8744  161.2774 C.ar    1  UNL1        0.1404
     27 C         141.5805  142.2135  160.6841 C.ar    1  UNL1        0.0712
     28 C         142.2818  143.4431  161.1803 C.ar    1  UNL1        0.1388
     29 C         143.3070  143.3337  162.2697 C.ar    1  UNL1        0.0310
     30 C         143.6310  141.9946  162.8629 C.ar    1  UNL1        0.0990
     31 N         142.9298  140.7650  162.3668 N.ar    1  UNL1       -0.2289
     32 C         144.0084  144.5633  162.7659 C.3     1  UNL1        0.0310
     33 C         143.5567  145.2239  164.0346 C.3     1  UNL1        0.0052
     34 O         141.9578  144.7822  160.5871 O.3     1  UNL1       -0.4756
     35 C         140.5634  145.3268  160.6815 C.3     1  UNL1        0.2055
     36 C         140.1073  146.0067  161.9383 C.3     1  UNL1        0.0512
     37 C         141.8795  138.7437  159.7909 C.3     1  UNL1        0.0813
     38 C         142.1309  138.3304  158.3711 C.3     1  UNL1        0.0219
     39 C         142.7995  137.5965  159.4954 C.3     1  UNL1        0.0219
@<TRIPOS>BOND
     1    17    18    1
     2    18    16    1
     3    16    15    1
     4    14    15    1
     5    14    19    1
     6    19    20    1
     7    20    21    1
     8    20    22    1
     9    14    10    1
    10    10    11   am
    11    11    12    2
    12     1    11    1
    13     1     2    1
    14     2     3    1
    15     3     4    1
    16     4     5    1
    17     5    23    1
    18    23    24    2
    19    23    25   am
    20    25    26    1
    21    26    27   ar
    22    27    28   ar
    23    28    34    1
    24    34    35    1
    25    35    36    1
    26    28    29   ar
    27    29    32    1
    28    32    33    1
    29    29    30   ar
    30    30    31   ar
    31    25    37    1
    32    37    38    1
    33    38    39    1
    34     5     6    1
    35     6     7    1
    36     6     1    1
    37    31    26   ar
    38    39    37    1
    39    10    13    1
    40     3     8    1
    41     7     9    1
@<TRIPOS>MOLECULE
*****
 39 41 0 0 0
SMALL
GASTEIGER

@<TRIPOS>ATOM
      1 C         140.2996  138.8997  164.4009 C.3     1  UNL1        0.1194
      2 C         138.8266  138.6566  164.5460 C.3     1  UNL1        0.0802
      3 N         138.1393  138.9673  165.8426 N.3     1  UNL1       -0.2965
      4 C         138.9250  139.5212  166.9940 C.3     1  UNL1        0.0802
      5 C         140.3980  139.7643  166.8489 C.3     1  UNL1        0.1200
      6 C         141.0853  139.4536  165.5523 C.3     1  UNL1        0.1303
      7 O         142.5584  139.6968  165.4072 O.3     1  UNL1       -0.3834
      8 H         137.7150  138.0982  166.1666 H       1  UNL1        0.1233
      9 H         142.9105  140.0536  166.2376 H       1  UNL1        0.2104
     10 N         141.6648  139.6829  162.3338 N.am    1  UNL1       -0.3034
     11 C         140.9869  138.5890  163.1043 C.2     1  UNL1        0.2258
     12 O         140.9963  137.1844  162.5782 O.2     1  UNL1       -0.2750
     13 H         141.6586  140.6049  162.6791 H       1  UNL1        0.1495
     14 C         142.3521  139.3722  161.0372 C.3     1  UNL1        0.1011
     15 C         143.8389  139.1767  161.0046 C.3     1  UNL1        0.1615
     16 O         144.6756  139.5891  162.1792 O.3     1  UNL1       -0.3520
     17 C         145.7018  141.4566  163.6656 C.3     1  UNL1        0.0346
     18 C         144.8842  141.0442  162.4775 C.3     1  UNL1        0.1423
     19 C         141.5525  139.2570  159.7733 C.3     1  UNL1        0.0221
     20 C         140.2129  139.9240  159.6699 C.3     1  UNL1        0.0017
     21 C         140.1240  141.3752  159.3012 C.3     1  UNL1        0.0001
     22 C         138.9621  139.1396  159.9352 C.3     1  UNL1        0.0001
     23 C         141.1838  140.3183  168.0003 C.2     1  UNL1        0.2336
     24 O         141.3784  139.4964  169.2399 O.2     1  UNL1       -0.2744
     25 N         141.7749  141.6940  167.9121 N.am    1  UNL1       -0.2454
     26 C         141.5802  142.5159  166.6724 C.ar    1  UNL1        0.1404
     27 C         140.2535  143.1609  166.4009 C.ar    1  UNL1        0.0712
     28 C         140.0588  143.9827  165.1613 C.ar    1  UNL1        0.1388
     29 C         141.1909  144.1596  164.1933 C.ar    1  UNL1        0.0310
     30 C         142.5176  143.5146  164.4648 C.ar    1  UNL1        0.0990
     31 N         142.7123  142.6928  165.7044 N.ar    1  UNL1       -0.2289
     32 C         140.9962  144.9814  162.9536 C.3     1  UNL1        0.0310
     33 C         140.6857  144.3092  161.6491 C.3     1  UNL1        0.0052
     34 O         138.7321  144.6277  164.8897 O.3     1  UNL1       -0.4756
     35 C         137.5609  143.7878  164.4741 C.3     1  UNL1        0.2055
     36 C         137.6946  142.8288  163.3285 C.3     1  UNL1        0.0512
     37 C         142.5606  142.2480  169.0635 C.3     1  UNL1        0.0813
     38 C         143.8630  142.4069  169.7906 C.3     1  UNL1        0.0219
     39 C         142.6193  143.0484  170.3307 C.3     1  UNL1        0.0219
@<TRIPOS>BOND
     1    17    18    1
     2    18    16    1
     3    16    15    1
     4    14    15    1
     5    14    19    1
     6    19    20    1
     7    20    21    1
     8    20    22    1
     9    14    10    1
    10    10    11   am
    11    11    12    2
    12     1    11    1
    13     1     2    1
    14     2     3    1
    15     3     4    1
    16     4     5    1
    17     5    23    1
    18    23    24    2
    19    23    25   am
    20    25    26    1
    21    26    27   ar
    22    27    28   ar
    23    28    34    1
    24    34    35    1
    25    35    36    1
    26    28    29   ar
    27    29    32    1
    28    32    33    1
    29    29    30   ar
    30    30    31   ar
    31    25    37    1
    32    37    38    1
    33    38    39    1
    34     5     6    1
    35     6     7    1
    36     6     1    1
    37    31    26   ar
    38    39    37    1
    39    10    13    1
    40     3     8    1
    41     7     9    1
@<TRIPOS>MOLECULE
*****
 39 41 0 0 0
SMALL
GASTEIGER

@<TRIPOS>ATOM
      1 C         143.1922  142.2508  161.8021 C.3     1  UNL1        0.1194
      2 C         144.3111  141.6954  162.6325 C.3     1  UNL1        0.0802
      3 N         144.9599  140.3994  162.2461 N.3     1  UNL1       -0.2965
      4 C         144.4899  139.6587  161.0294 C.3     1  UNL1        0.0802
      5 C         143.3710  140.2141  160.1990 C.3     1  UNL1        0.1200
      6 C         142.7222  141.5102  160.5854 C.3     1  UNL1        0.1303
      7 O         141.6032  142.0656  159.7549 O.3     1  UNL1       -0.3834
      8 H         144.8475  139.7663  163.0379 H       1  UNL1        0.1233
      9 H         141.4250  141.4683  159.0116 H       1  UNL1        0.2104
     10 N         141.0533  143.6230  162.3423 N.am    1  UNL1       -0.3034
     11 C         142.5434  143.5469  162.1884 C.2     1  UNL1        0.2258
     12 O         143.3846  144.7668  162.4208 O.2     1  UNL1       -0.2750
     13 H         140.5011  142.8223  162.1898 H       1  UNL1        0.1495
     14 C         140.4044  144.9191  162.7287 C.3     1  UNL1        0.1011
     15 C         140.0917  145.9435  161.6786 C.3     1  UNL1        0.1615
     16 O         139.7553  145.5085  160.2831 O.3     1  UNL1       -0.3520
     17 C         140.4590  145.6245  157.7848 C.3     1  UNL1        0.0346
     18 C         140.8241  145.4695  159.2314 C.3     1  UNL1        0.1423
     19 C         140.0683  145.1906  164.1651 C.3     1  UNL1        0.0221
     20 C         139.2479  144.2046  164.9428 C.3     1  UNL1        0.0017
     21 C         137.7502  144.2717  164.8945 C.3     1  UNL1        0.0001
     22 C         139.9253  143.1514  165.7687 C.3     1  UNL1        0.0001
     23 C         142.9009  139.4735  158.9822 C.2     1  UNL1        0.2336
     24 O         143.6296  139.6305  157.6806 O.2     1  UNL1       -0.2744
     25 N         141.7022  138.5758  159.0672 N.am    1  UNL1       -0.2454
     26 C         140.9735  138.4188  160.3689 C.ar    1  UNL1        0.1404
     27 C         139.6633  139.1166  160.5839 C.ar    1  UNL1        0.0712
     28 C         138.9346  138.9597  161.8856 C.ar    1  UNL1        0.1388
     29 C         139.5163  138.1048  162.9723 C.ar    1  UNL1        0.0310
     30 C         140.8265  137.4070  162.7573 C.ar    1  UNL1        0.0990
     31 N         141.5552  137.5640  161.4556 N.ar    1  UNL1       -0.2289
     32 C         138.7876  137.9478  164.2740 C.3     1  UNL1        0.0310
     33 C         139.1100  138.8507  165.4277 C.3     1  UNL1        0.0052
     34 O         137.6244  139.6575  162.1006 O.3     1  UNL1       -0.4756
     35 C         137.5952  141.0254  162.7153 C.3     1  UNL1        0.2055
     36 C         137.8877  142.2322  161.8739 C.3     1  UNL1        0.0512
     37 C         141.2321  137.8352  157.8505 C.3     1  UNL1        0.0813
     38 C         140.1380  137.4807  156.8875 C.3     1  UNL1        0.0219
     39 C         141.5119  136.9068  156.7060 C.3     1  UNL1        0.0219
@<TRIPOS>BOND
     1    17    18    1
     2    18    16    1
     3    16    15    1
     4    14    15    1
     5    14    19    1
     6    19    20    1
     7    20    21    1
     8    20    22    1
     9    14    10    1
    10    10    11   am
    11    11    12    2
    12     1    11    1
    13     1     2    1
    14     2     3    1
    15     3     4    1
    16     4     5    1
    17     5    23    1
    18    23    24    2
    19    23    25   am
    20    25    26    1
    21    26    27   ar
    22    27    28   ar
    23    28    34    1
    24    34    35    1
    25    35    36    1
    26    28    29   ar
    27    29    32    1
    28    32    33    1
    29    29    30   ar
    30    30    31   ar
    31    25    37    1
    32    37    38    1
    33    38    39    1
    34     5     6    1
    35     6     7    1
    36     6     1    1
    37    31    26   ar
    38    39    37    1
    39    10    13    1
    40     3     8    1
    41     7     9    1
@<TRIPOS>MOLECULE
*****
 39 41 0 0 0
SMALL
GASTEIGER

@<TRIPOS>ATOM
      1 C         138.6484  139.9550  162.8701 C.3     1  UNL1        0.1194
      2 C         138.7917  138.5710  162.3099 C.3     1  UNL1        0.0802
      3 N         138.9942  137.4057  163.2325 N.3     1  UNL1       -0.2965
      4 C         139.0535  137.6244  164.7152 C.3     1  UNL1        0.0802
      5 C         138.9102  139.0085  165.2754 C.3     1  UNL1        0.1200
      6 C         138.7077  140.1738  164.3529 C.3     1  UNL1        0.1303
      7 O         138.5644  141.5579  164.9132 O.3     1  UNL1       -0.3834
      8 H         139.8753  136.9673  162.9641 H       1  UNL1        0.1233
      9 H         138.6256  141.5230  165.8806 H       1  UNL1        0.2104
     10 N         139.3678  141.3230  160.7818 N.am    1  UNL1       -0.3034
     11 C         138.4459  141.1203  161.9476 C.2     1  UNL1        0.2258
     12 O         137.3216  142.0829  162.1909 O.2     1  UNL1       -0.2750
     13 H         140.1057  140.6913  160.6222 H       1  UNL1        0.1495
     14 C         139.1652  142.4883  159.8593 C.3     1  UNL1        0.1011
     15 C         139.7977  143.8118  160.1727 C.3     1  UNL1        0.1615
     16 O         139.2541  144.6581  161.2855 O.3     1  UNL1       -0.3520
     17 C         139.0337  144.8732  163.8653 C.3     1  UNL1        0.0346
     18 C         139.8676  144.5843  162.6523 C.3     1  UNL1        0.1423
     19 C         138.3302  142.3301  158.6232 C.3     1  UNL1        0.0221
     20 C         138.9739  142.3948  157.2699 C.3     1  UNL1        0.0017
     21 C         138.9599  143.6781  156.4934 C.3     1  UNL1        0.0001
     22 C         139.6316  141.1762  156.6932 C.3     1  UNL1        0.0001
     23 C         138.9694  139.2273  166.7583 C.2     1  UNL1        0.2336
     24 O         137.7569  138.9708  167.6032 O.2     1  UNL1       -0.2744
     25 N         140.2412  139.7026  167.3960 N.am    1  UNL1       -0.2454
     26 C         141.4537  139.9591  166.5509 C.ar    1  UNL1        0.1404
     27 C         141.9477  141.3617  166.3542 C.ar    1  UNL1        0.0712
     28 C         143.1601  141.6182  165.5092 C.ar    1  UNL1        0.1388
     29 C         143.8786  140.4722  164.8609 C.ar    1  UNL1        0.0310
     30 C         143.3846  139.0696  165.0577 C.ar    1  UNL1        0.0990
     31 N         142.1722  138.8130  165.9027 N.ar    1  UNL1       -0.2289
     32 C         145.0911  140.7287  164.0158 C.3     1  UNL1        0.0310
     33 C         144.9326  141.1547  162.5864 C.3     1  UNL1        0.0052
     34 O         143.6541  143.0208  165.3124 O.3     1  UNL1       -0.4756
     35 C         142.9601  143.9314  164.3433 C.3     1  UNL1        0.2055
     36 C         143.7646  144.7877  163.4109 C.3     1  UNL1        0.0512
     37 C         140.3004  139.9214  168.8788 C.3     1  UNL1        0.0813
     38 C         141.0119  139.7558  170.1889 C.3     1  UNL1        0.0219
     39 C         139.6917  140.4659  170.1369 C.3     1  UNL1        0.0219
@<TRIPOS>BOND
     1    17    18    1
     2    18    16    1
     3    16    15    1
     4    14    15    1
     5    14    19    1
     6    19    20    1
     7    20    21    1
     8    20    22    1
     9    14    10    1
    10    10    11   am
    11    11    12    2
    12     1    11    1
    13     1     2    1
    14     2     3    1
    15     3     4    1
    16     4     5    1
    17     5    23    1
    18    23    24    2
    19    23    25   am
    20    25    26    1
    21    26    27   ar
    22    27    28   ar
    23    28    34    1
    24    34    35    1
    25    35    36    1
    26    28    29   ar
    27    29    32    1
    28    32    33    1
    29    29    30   ar
    30    30    31   ar
    31    25    37    1
    32    37    38    1
    33    38    39    1
    34     5     6    1
    35     6     7    1
    36     6     1    1
    37    31    26   ar
    38    39    37    1
    39    10    13    1
    40     3     8    1
    41     7     9    1
@<TRIPOS>MOLECULE
*****
 39 41 0 0 0
SMALL
GASTEIGER

@<TRIPOS>ATOM
      1 C         142.7110  141.4657  166.2738 C.3     1  UNL1        0.1194
      2 C         143.3593  142.6008  167.0095 C.3     1  UNL1        0.0802
      3 N         144.3233  143.5028  166.2975 N.3     1  UNL1       -0.2965
      4 C         144.6392  143.2697  164.8498 C.3     1  UNL1        0.0802
      5 C         143.9909  142.1346  164.1141 C.3     1  UNL1        0.1200
      6 C         143.0269  141.2326  164.8261 C.3     1  UNL1        0.1303
      7 O         142.3786  140.0974  164.0903 O.3     1  UNL1       -0.3834
      8 H         145.2069  143.4480  166.8042 H       1  UNL1        0.1233
      9 H         142.6894  140.0882  163.1715 H       1  UNL1        0.2104
     10 N         140.4090  141.0869  167.4170 N.am    1  UNL1       -0.3034
     11 C         141.7469  140.5637  166.9858 C.2     1  UNL1        0.2258
     12 O         142.1209  139.1384  167.2666 O.2     1  UNL1       -0.2750
     13 H         140.1635  142.0223  167.2327 H       1  UNL1        0.1495
     14 C         139.4449  140.1849  168.1290 C.3     1  UNL1        0.1011
     15 C         139.3085  140.2610  169.6208 C.3     1  UNL1        0.1615
     16 O         139.0754  141.5851  170.2860 O.3     1  UNL1       -0.3520
     17 C         140.4350  143.7611  169.8783 C.3     1  UNL1        0.0346
     18 C         140.2383  142.4719  170.6194 C.3     1  UNL1        0.1423
     19 C         138.6172  139.2067  167.3491 C.3     1  UNL1        0.0221
     20 C         138.6811  139.1974  165.8505 C.3     1  UNL1        0.0017
     21 C         138.0616  140.3160  165.0664 C.3     1  UNL1        0.0001
     22 C         139.3645  138.0693  165.1359 C.3     1  UNL1        0.0001
     23 C         144.3068  141.9015  162.6663 C.2     1  UNL1        0.2336
     24 O         145.6494  141.3636  162.2687 O.2     1  UNL1       -0.2744
     25 N         143.2800  142.2062  161.6162 N.am    1  UNL1       -0.2454
     26 C         141.9373  142.7441  162.0139 C.ar    1  UNL1        0.1404
     27 C         140.6982  141.9438  161.7418 C.ar    1  UNL1        0.0712
     28 C         139.3556  142.4816  162.1394 C.ar    1  UNL1        0.1388
     29 C         139.2521  143.8198  162.8091 C.ar    1  UNL1        0.0310
     30 C         140.4912  144.6201  163.0812 C.ar    1  UNL1        0.0990
     31 N         141.8338  144.0823  162.6835 N.ar    1  UNL1       -0.2289
     32 C         137.9095  144.3577  163.2067 C.3     1  UNL1        0.0310
     33 C         137.4172  144.1810  164.6126 C.3     1  UNL1        0.0052
     34 O         138.1165  141.6812  161.8673 O.3     1  UNL1       -0.4756
     35 C         138.1885  140.4585  161.0015 C.3     1  UNL1        0.2055
     36 C         137.8083  139.1198  161.5612 C.3     1  UNL1        0.0512
     37 C         143.5957  141.9731  160.1685 C.3     1  UNL1        0.0813
     38 C         143.9051  141.0329  159.0415 C.3     1  UNL1        0.0219
     39 C         143.8333  142.5095  158.7880 C.3     1  UNL1        0.0219
@<TRIPOS>BOND
     1    17    18    1
     2    18    16    1
     3    16    15    1
     4    14    15    1
     5    14    19    1
     6    19    20    1
     7    20    21    1
     8    20    22    1
     9    14    10    1
    10    10    11   am
    11    11    12    2
    12     1    11    1
    13     1     2    1
    14     2     3    1
    15     3     4    1
    16     4     5    1
    17     5    23    1
    18    23    24    2
    19    23    25   am
    20    25    26    1
    21    26    27   ar
    22    27    28   ar
    23    28    34    1
    24    34    35    1
    25    35    36    1
    26    28    29   ar
    27    29    32    1
    28    32    33    1
    29    29    30   ar
    30    30    31   ar
    31    25    37    1
    32    37    38    1
    33    38    39    1
    34     5     6    1
    35     6     7    1
    36     6     1    1
    37    31    26   ar
    38    39    37    1
    39    10    13    1
    40     3     8    1
    41     7     9    1
@<TRIPOS>MOLECULE
*****
 39 41 0 0 0
SMALL
GASTEIGER

@<TRIPOS>ATOM
      1 C         138.7750  140.5276  163.1625 C.3     1  UNL1        0.1194
      2 C         138.7171  139.2076  162.4526 C.3     1  UNL1        0.0802
      3 N         138.7791  137.9306  163.2371 N.3     1  UNL1       -0.2965
      4 C         138.8990  137.9737  164.7317 C.3     1  UNL1        0.0802
      5 C         138.9569  139.2938  165.4417 C.3     1  UNL1        0.1200
      6 C         138.8949  140.5707  164.6571 C.3     1  UNL1        0.1303
      7 O         138.9528  141.8908  165.3671 O.3     1  UNL1       -0.3834
      8 H         139.5865  137.4118  162.8918 H       1  UNL1        0.1233
      9 H         139.0293  141.7410  166.3224 H       1  UNL1        0.2104
     10 N         139.9686  142.3987  161.8118 N.am    1  UNL1       -0.3034
     11 C         138.7130  141.8046  162.3779 C.2     1  UNL1        0.2258
     12 O         137.3955  142.4874  162.1595 O.2     1  UNL1       -0.2750
     13 H         140.8333  141.9505  161.9552 H       1  UNL1        0.1495
     14 C         139.9066  143.6756  161.0272 C.3     1  UNL1        0.1011
     15 C         139.9282  143.6365  159.5279 C.3     1  UNL1        0.1615
     16 O         141.2139  143.8657  158.7901 O.3     1  UNL1       -0.3520
     17 C         140.2499  146.0180  157.7001 C.3     1  UNL1        0.0346
     18 C         141.4203  145.1361  158.0198 C.3     1  UNL1        0.1423
     19 C         139.8230  144.9918  161.7420 C.3     1  UNL1        0.0221
     20 C         140.2708  145.0997  163.1695 C.3     1  UNL1        0.0017
     21 C         141.7237  145.2952  163.4871 C.3     1  UNL1        0.0001
     22 C         139.2656  145.0121  164.2795 C.3     1  UNL1        0.0001
     23 C         139.0768  139.3369  166.9363 C.2     1  UNL1        0.2336
     24 O         137.9530  138.8349  167.7936 O.2     1  UNL1       -0.2744
     25 N         140.3204  139.8822  167.5735 N.am    1  UNL1       -0.2454
     26 C         141.4442  140.3842  166.7160 C.ar    1  UNL1        0.1404
     27 C         142.2008  139.4320  165.8381 C.ar    1  UNL1        0.0712
     28 C         143.3246  139.9340  164.9807 C.ar    1  UNL1        0.1388
     29 C         143.6917  141.3883  165.0012 C.ar    1  UNL1        0.0310
     30 C         142.9350  142.3405  165.8792 C.ar    1  UNL1        0.0990
     31 N         141.8113  141.8385  166.7366 N.ar    1  UNL1       -0.2289
     32 C         144.8154  141.8903  164.1438 C.3     1  UNL1        0.0310
     33 C         144.5229  142.7619  162.9586 C.3     1  UNL1        0.0052
     34 O         144.0812  138.9818  164.1027 O.3     1  UNL1       -0.4756
     35 C         143.4848  138.5228  162.8052 C.3     1  UNL1        0.2055
     36 C         144.0514  139.0111  161.5050 C.3     1  UNL1        0.0512
     37 C         140.4404  139.9253  169.0680 C.3     1  UNL1        0.0813
     38 C         141.2117  139.6235  170.3186 C.3     1  UNL1        0.0219
     39 C         139.8768  140.3019  170.4061 C.3     1  UNL1        0.0219
@<TRIPOS>BOND
     1    17    18    1
     2    18    16    1
     3    16    15    1
     4    14    15    1
     5    14    19    1
     6    19    20    1
     7    20    21    1
     8    20    22    1
     9    14    10    1
    10    10    11   am
    11    11    12    2
    12     1    11    1
    13     1     2    1
    14     2     3    1
    15     3     4    1
    16     4     5    1
    17     5    23    1
    18    23    24    2
    19    23    25   am
    20    25    26    1
    21    26    27   ar
    22    27    28   ar
    23    28    34    1
    24    34    35    1
    25    35    36    1
    26    28    29   ar
    27    29    32    1
    28    32    33    1
    29    29    30   ar
    30    30    31   ar
    31    25    37    1
    32    37    38    1
    33    38    39    1
    34     5     6    1
    35     6     7    1
    36     6     1    1
    37    31    26   ar
    38    39    37    1
    39    10    13    1
    40     3     8    1
    41     7     9    1
@<TRIPOS>MOLECULE
*****
 39 41 0 0 0
SMALL
GASTEIGER

@<TRIPOS>ATOM
      1 C         140.1759  138.7036  164.6902 C.3     1  UNL1        0.1194
      2 C         138.6905  138.5076  164.6193 C.3     1  UNL1        0.0802
      3 N         137.8224  138.9310  165.7669 N.3     1  UNL1       -0.2965
      4 C         138.4398  139.5505  166.9856 C.3     1  UNL1        0.0802
      5 C         139.9252  139.7466  167.0565 C.3     1  UNL1        0.1200
      6 C         140.7932  139.3231  165.9088 C.3     1  UNL1        0.1303
      7 O         142.2787  139.5192  165.9798 O.3     1  UNL1       -0.3834
      8 H         137.3226  138.0991  166.0807 H       1  UNL1        0.1233
      9 H         142.5107  139.9286  166.8280 H       1  UNL1        0.2104
     10 N         141.7743  139.3113  162.7342 N.am    1  UNL1       -0.3034
     11 C         141.0440  138.2802  163.5425 C.2     1  UNL1        0.2258
     12 O         141.1817  136.8256  163.2031 O.2     1  UNL1       -0.2750
     13 H         141.6839  140.2660  162.9570 H       1  UNL1        0.1495
     14 C         142.6423  138.8878  161.5866 C.3     1  UNL1        0.1011
     15 C         142.0356  138.1932  160.4037 C.3     1  UNL1        0.1615
     16 O         141.1943  138.9652  159.4309 O.3     1  UNL1       -0.3520
     17 C         139.0232  138.2209  160.6484 C.3     1  UNL1        0.0346
     18 C         139.7212  139.1176  159.6693 C.3     1  UNL1        0.1423
     19 C         144.1173  139.1590  161.6218 C.3     1  UNL1        0.0221
     20 C         144.6602  140.2390  162.5100 C.3     1  UNL1        0.0017
     21 C         145.0591  139.9203  163.9204 C.3     1  UNL1        0.0001
     22 C         144.8043  141.6378  161.9876 C.3     1  UNL1        0.0001
     23 C         140.5426  140.3661  168.2751 C.2     1  UNL1        0.2336
     24 O         140.5262  139.6290  169.5814 O.2     1  UNL1       -0.2744
     25 N         141.1764  141.7228  168.1875 N.am    1  UNL1       -0.2454
     26 C         141.1928  142.4599  166.8811 C.ar    1  UNL1        0.1404
     27 C         139.9801  143.2213  166.4344 C.ar    1  UNL1        0.0712
     28 C         139.9964  143.9584  165.1281 C.ar    1  UNL1        0.1388
     29 C         141.2255  143.9342  164.2686 C.ar    1  UNL1        0.0310
     30 C         142.4382  143.1728  164.7154 C.ar    1  UNL1        0.0990
     31 N         142.4219  142.4357  166.0217 N.ar    1  UNL1       -0.2289
     32 C         141.2419  144.6713  162.9623 C.3     1  UNL1        0.0310
     33 C         142.2952  144.3624  161.9400 C.3     1  UNL1        0.0052
     34 O         138.7837  144.7198  164.6814 O.3     1  UNL1       -0.4756
     35 C         137.6314  143.9934  164.0534 C.3     1  UNL1        0.2055
     36 C         137.7983  143.3368  162.7151 C.3     1  UNL1        0.0512
     37 C         141.7938  142.3423  169.4060 C.3     1  UNL1        0.0813
     38 C         141.9297  143.5034  170.3459 C.3     1  UNL1        0.0219
     39 C         142.7274  142.2543  170.5768 C.3     1  UNL1        0.0219
@<TRIPOS>BOND
     1    17    18    1
     2    18    16    1
     3    16    15    1
     4    14    15    1
     5    14    19    1
     6    19    20    1
     7    20    21    1
     8    20    22    1
     9    14    10    1
    10    10    11   am
    11    11    12    2
    12     1    11    1
    13     1     2    1
    14     2     3    1
    15     3     4    1
    16     4     5    1
    17     5    23    1
    18    23    24    2
    19    23    25   am
    20    25    26    1
    21    26    27   ar
    22    27    28   ar
    23    28    34    1
    24    34    35    1
    25    35    36    1
    26    28    29   ar
    27    29    32    1
    28    32    33    1
    29    29    30   ar
    30    30    31   ar
    31    25    37    1
    32    37    38    1
    33    38    39    1
    34     5     6    1
    35     6     7    1
    36     6     1    1
    37    31    26   ar
    38    39    37    1
    39    10    13    1
    40     3     8    1
    41     7     9    1
@<TRIPOS>MOLECULE
*****
 39 41 0 0 0
SMALL
GASTEIGER

@<TRIPOS>ATOM
      1 C         139.0436  142.4894  162.5037 C.3     1  UNL1        0.1194
      2 C         138.4795  143.8625  162.7190 C.3     1  UNL1        0.0802
      3 N         138.9022  144.9948  161.8305 N.3     1  UNL1       -0.2965
      4 C         139.8888  144.7539  160.7267 C.3     1  UNL1        0.0802
      5 C         140.4528  143.3808  160.5114 C.3     1  UNL1        0.1200
      6 C         140.0302  142.2486  161.3999 C.3     1  UNL1        0.1303
      7 O         140.5943  140.8754  161.1846 O.3     1  UNL1       -0.3834
      8 H         139.3064  145.7092  162.4360 H       1  UNL1        0.1233
      9 H         141.2120  140.8932  160.4368 H       1  UNL1        0.2104
     10 N         139.6465  140.6045  164.1870 N.am    1  UNL1       -0.3034
     11 C         138.6210  141.3572  163.3922 C.2     1  UNL1        0.2258
     12 O         137.1728  140.9777  163.4861 O.2     1  UNL1       -0.2750
     13 H         140.5970  140.8535  164.1254 H       1  UNL1        0.1495
     14 C         139.2239  139.4722  165.0755 C.3     1  UNL1        0.1011
     15 C         138.9813  139.7150  166.5356 C.3     1  UNL1        0.1615
     16 O         140.1401  139.8028  167.4840 O.3     1  UNL1       -0.3520
     17 C         140.3546  142.3751  167.1884 C.3     1  UNL1        0.0346
     18 C         140.5837  141.1377  168.0048 C.3     1  UNL1        0.1423
     19 C         139.0439  138.0971  164.5038 C.3     1  UNL1        0.0221
     20 C         139.5809  137.7755  163.1406 C.3     1  UNL1        0.0017
     21 C         138.6917  137.8899  161.9380 C.3     1  UNL1        0.0001
     22 C         141.0071  137.3393  162.9801 C.3     1  UNL1        0.0001
     23 C         141.4395  143.1398  159.4075 C.2     1  UNL1        0.2336
     24 O         140.9666  143.0386  157.9877 O.2     1  UNL1       -0.2744
     25 N         142.8992  143.0001  159.7236 N.am    1  UNL1       -0.2454
     26 C         143.3721  143.1014  161.1435 C.ar    1  UNL1        0.1404
     27 C         143.8972  141.8854  161.8476 C.ar    1  UNL1        0.0712
     28 C         144.3702  141.9866  163.2674 C.ar    1  UNL1        0.1388
     29 C         144.3180  143.3037  163.9832 C.ar    1  UNL1        0.0310
     30 C         143.7929  144.5197  163.2792 C.ar    1  UNL1        0.0990
     31 N         143.3200  144.4185  161.8593 N.ar    1  UNL1       -0.2289
     32 C         144.7909  143.4049  165.4032 C.3     1  UNL1        0.0310
     33 C         143.9151  142.9233  166.5216 C.3     1  UNL1        0.0052
     34 O         144.8953  140.7706  163.9715 O.3     1  UNL1       -0.4756
     35 C         144.0137  139.5711  164.1552 C.3     1  UNL1        0.2055
     36 C         143.0146  139.5387  165.2736 C.3     1  UNL1        0.0512
     37 C         143.8859  142.7592  158.6198 C.3     1  UNL1        0.0813
     38 C         145.3006  142.5606  158.1625 C.3     1  UNL1        0.0219
     39 C         144.1802  142.5405  157.1654 C.3     1  UNL1        0.0219
@<TRIPOS>BOND
     1    17    18    1
     2    18    16    1
     3    16    15    1
     4    14    15    1
     5    14    19    1
     6    19    20    1
     7    20    21    1
     8    20    22    1
     9    14    10    1
    10    10    11   am
    11    11    12    2
    12     1    11    1
    13     1     2    1
    14     2     3    1
    15     3     4    1
    16     4     5    1
    17     5    23    1
    18    23    24    2
    19    23    25   am
    20    25    26    1
    21    26    27   ar
    22    27    28   ar
    23    28    34    1
    24    34    35    1
    25    35    36    1
    26    28    29   ar
    27    29    32    1
    28    32    33    1
    29    29    30   ar
    30    30    31   ar
    31    25    37    1
    32    37    38    1
    33    38    39    1
    34     5     6    1
    35     6     7    1
    36     6     1    1
    37    31    26   ar
    38    39    37    1
    39    10    13    1
    40     3     8    1
    41     7     9    1
