@<TRIPOS>MOLECULE
*****
 32 35 0 0 0
SMALL
GASTEIGER

@<TRIPOS>ATOM
      1 C         144.7213  141.8441  164.0149 C.3     1  UNL1        0.0177
      2 C         143.2987  142.2286  164.2954 C.3     1  UNL1        0.0622
      3 C         142.5939  143.2015  163.3972 C.3     1  UNL1        0.0384
      4 C         141.1714  143.5861  163.6776 C.2     1  UNL1       -0.0343
      5 C         140.4538  142.9978  164.8562 C.2     1  UNL1       -0.0106
      6 C         139.0314  143.3824  165.1366 C.2     1  UNL1       -0.0020
      7 C         138.3264  144.3553  164.2385 C.2     1  UNL1        0.0169
      8 C         139.0440  144.9436  163.0599 C.2     1  UNL1        0.0896
      9 N         138.6114  145.9196  162.0063 N.2     1  UNL1       -0.1520
     10 N         139.7665  146.1382  161.0747 N.2     1  UNL1       -0.1507
     11 C         140.9130  145.2973  161.5525 C.2     1  UNL1        0.1054
     12 C         140.4665  144.5589  162.7795 C.3     1  UNL1        0.1032
     13 C         141.1588  142.0249  165.7543 C.3     1  UNL1        0.1068
     14 N         142.5812  141.6404  165.4739 N.3     1  UNL1       -0.2655
     15 C         140.4412  141.4367  166.9329 C.ar    1  UNL1        0.0512
     16 C         139.5820  140.2197  166.7570 C.ar    1  UNL1        0.1399
     17 F         139.4405  139.5910  165.4025 F       1  UNL1       -0.2044
     18 C         138.8644  139.6315  167.9356 C.ar    1  UNL1        0.0295
     19 C         139.0060  140.2603  169.2901 C.ar    1  UNL1        0.0045
     20 C         139.8651  141.4771  169.4660 C.ar    1  UNL1        0.0295
     21 C         140.5827  142.0654  168.2874 C.ar    1  UNL1        0.1399
     22 F         141.4418  143.2824  168.4633 F       1  UNL1       -0.2044
     23 C         138.2884  139.6720  170.4687 C.2     1  UNL1        0.0013
     24 C         136.9938  138.9409  170.2700 C.2     1  UNL1        0.0151
     25 C         136.2762  138.3527  171.4486 C.2     1  UNL1        0.0729
     26 O         136.2958  136.8700  171.6751 O.co2   1  UNL1       -0.5446
     27 O         135.5389  139.2472  172.4006 O.co2   1  UNL1       -0.5446
     28 C         143.2861  140.6675  166.3720 C.3     1  UNL1        0.1054
     29 C         142.9898  139.2008  166.2685 C.3     1  UNL1        0.1486
     30 C         143.0374  139.2967  164.7723 C.3     1  UNL1        0.0368
     31 C         142.9421  139.1047  167.7646 C.3     1  UNL1        0.0368
     32 F         142.6934  137.7340  166.1649 F       1  UNL1       -0.2386
@<TRIPOS>UNITY_ATOM_ATTR
26 1
charge -1
@<TRIPOS>BOND
     1     2     1    1
     2     2     3    1
     3     3     4    1
     4     4     5    2
     5     5     6    1
     6     6     7    2
     7     7     8    1
     8     8     9    2
     9     9    10    1
    10    10    11    2
    11    11    12    1
    12     5    13    1
    13    13    15    1
    14    15    16   ar
    15    16    17    1
    16    16    18   ar
    17    18    19   ar
    18    19    23    1
    19    23    24    2
    20    24    25    1
    21    25    26   ar
    22    25    27   ar
    23    19    20   ar
    24    20    21   ar
    25    21    22    1
    26    13    14    1
    27    14    28    1
    28    28    29    1
    29    29    30    1
    30    29    31    1
    31    29    32    1
    32    14     2    1
    33    12     4    1
    34    21    15   ar
    35    12     8    1
@<TRIPOS>MOLECULE
*****
 32 35 0 0 0
SMALL
GASTEIGER

@<TRIPOS>ATOM
      1 C         137.7445  138.4782  166.7181 C.3     1  UNL1        0.0177
      2 C         138.9724  139.3381  166.7724 C.3     1  UNL1        0.0622
      3 C         139.4203  139.9242  168.0784 C.3     1  UNL1        0.0384
      4 C         140.6482  140.7841  168.1328 C.2     1  UNL1       -0.0343
      5 C         141.4281  141.0579  166.8811 C.2     1  UNL1       -0.0106
      6 C         142.6559  141.9178  166.9355 C.2     1  UNL1       -0.0020
      7 C         143.1039  142.5040  168.2415 C.2     1  UNL1        0.0169
      8 C         142.3239  142.2302  169.4932 C.2     1  UNL1        0.0896
      9 N         142.5211  142.6675  170.9145 N.2     1  UNL1       -0.1520
     10 N         141.4151  142.0778  171.7385 N.2     1  UNL1       -0.1507
     11 C         140.5344  141.2761  170.8265 C.2     1  UNL1        0.1054
     12 C         141.0961  141.3703  169.4389 C.3     1  UNL1        0.1032
     13 C         140.9801  140.4717  165.5750 C.3     1  UNL1        0.1068
     14 N         139.7523  139.6119  165.5207 N.3     1  UNL1       -0.2655
     15 C         141.7600  140.7455  164.3234 C.ar    1  UNL1        0.0512
     16 C         141.3323  141.8465  163.3988 C.ar    1  UNL1        0.1399
     17 F         140.1247  142.6738  163.7260 F       1  UNL1       -0.2044
     18 C         142.1123  142.1203  162.1471 C.ar    1  UNL1        0.0295
     19 C         143.3200  141.2929  161.8200 C.ar    1  UNL1        0.0045
     20 C         143.7477  140.1919  162.7444 C.ar    1  UNL1        0.0295
     21 C         142.9677  139.9182  163.9962 C.ar    1  UNL1        0.1399
     22 F         143.3955  138.8171  164.9207 F       1  UNL1       -0.2044
     23 C         144.0999  141.5667  160.5683 C.2     1  UNL1        0.0013
     24 C         143.7378  140.8683  159.2911 C.2     1  UNL1        0.0151
     25 C         144.5177  141.1421  158.0394 C.2     1  UNL1        0.0729
     26 O         144.8487  140.0194  157.1013 O.co2   1  UNL1       -0.5446
     27 O         144.9668  142.5386  157.7259 O.co2   1  UNL1       -0.5446
     28 C         139.3043  139.0256  164.2146 C.3     1  UNL1        0.1054
     29 C         140.1567  138.0067  163.5182 C.3     1  UNL1        0.1486
     30 C         140.4104  137.3230  164.8290 C.3     1  UNL1        0.0368
     31 C         139.9031  138.6903  162.2074 C.3     1  UNL1        0.0368
     32 F         141.0091  136.9877  162.8218 F       1  UNL1       -0.2386
@<TRIPOS>UNITY_ATOM_ATTR
26 1
charge -1
@<TRIPOS>BOND
     1     2     1    1
     2     2     3    1
     3     3     4    1
     4     4     5    2
     5     5     6    1
     6     6     7    2
     7     7     8    1
     8     8     9    2
     9     9    10    1
    10    10    11    2
    11    11    12    1
    12     5    13    1
    13    13    15    1
    14    15    16   ar
    15    16    17    1
    16    16    18   ar
    17    18    19   ar
    18    19    23    1
    19    23    24    2
    20    24    25    1
    21    25    26   ar
    22    25    27   ar
    23    19    20   ar
    24    20    21   ar
    25    21    22    1
    26    13    14    1
    27    14    28    1
    28    28    29    1
    29    29    30    1
    30    29    31    1
    31    29    32    1
    32    14     2    1
    33    12     4    1
    34    21    15   ar
    35    12     8    1
@<TRIPOS>MOLECULE
*****
 32 35 0 0 0
SMALL
GASTEIGER

@<TRIPOS>ATOM
      1 C         143.9163  137.8458  166.5845 C.3     1  UNL1        0.0177
      2 C         143.1303  139.1097  166.7713 C.3     1  UNL1        0.0622
      3 C         142.5943  139.4662  168.1261 C.3     1  UNL1        0.0384
      4 C         141.8084  140.7300  168.3130 C.2     1  UNL1       -0.0343
      5 C         141.5584  141.6374  167.1451 C.2     1  UNL1       -0.0106
      6 C         140.7725  142.9012  167.3319 C.2     1  UNL1       -0.0020
      7 C         140.2365  143.2578  168.6868 C.2     1  UNL1        0.0169
      8 C         140.4864  142.3504  169.8548 C.2     1  UNL1        0.0896
      9 N         140.0864  142.4384  171.2978 N.2     1  UNL1       -0.1520
     10 N         140.6252  141.2290  172.0027 N.2     1  UNL1       -0.1507
     11 C         141.3581  140.3934  170.9954 C.2     1  UNL1        0.1054
     12 C         141.2723  141.0865  169.6679 C.3     1  UNL1        0.1032
     13 C         142.0945  141.2809  165.7902 C.3     1  UNL1        0.1068
     14 N         142.8804  140.0171  165.6034 N.3     1  UNL1       -0.2655
     15 C         141.8446  142.1883  164.6223 C.ar    1  UNL1        0.0512
     16 C         140.5848  142.0487  163.8201 C.ar    1  UNL1        0.1399
     17 F         139.5749  141.0017  164.1859 F       1  UNL1       -0.2044
     18 C         140.3348  142.9561  162.6521 C.ar    1  UNL1        0.0295
     19 C         141.3448  144.0032  162.2863 C.ar    1  UNL1        0.0045
     20 C         142.6045  144.1428  163.0884 C.ar    1  UNL1        0.0295
     21 C         142.8544  143.2354  164.2564 C.ar    1  UNL1        0.1399
     22 F         144.1142  143.3750  165.0586 F       1  UNL1       -0.2044
     23 C         141.0949  144.9106  161.1184 C.2     1  UNL1        0.0013
     24 C         141.6418  144.5606  159.7662 C.2     1  UNL1        0.0151
     25 C         141.3918  145.4680  158.5983 C.2     1  UNL1        0.0729
     26 O         142.5423  146.1482  157.9173 O.co2   1  UNL1       -0.5446
     27 O         139.9913  145.6952  158.1113 O.co2   1  UNL1       -0.5446
     28 C         143.4165  139.6606  164.2485 C.3     1  UNL1        0.1054
     29 C         142.4750  139.2670  163.1492 C.3     1  UNL1        0.1486
     30 C         141.6959  138.4268  164.1171 C.3     1  UNL1        0.0368
     31 C         143.2540  140.1072  162.1811 C.3     1  UNL1        0.0368
     32 F         141.5334  138.8734  162.0498 F       1  UNL1       -0.2386
@<TRIPOS>UNITY_ATOM_ATTR
26 1
charge -1
@<TRIPOS>BOND
     1     2     1    1
     2     2     3    1
     3     3     4    1
     4     4     5    2
     5     5     6    1
     6     6     7    2
     7     7     8    1
     8     8     9    2
     9     9    10    1
    10    10    11    2
    11    11    12    1
    12     5    13    1
    13    13    15    1
    14    15    16   ar
    15    16    17    1
    16    16    18   ar
    17    18    19   ar
    18    19    23    1
    19    23    24    2
    20    24    25    1
    21    25    26   ar
    22    25    27   ar
    23    19    20   ar
    24    20    21   ar
    25    21    22    1
    26    13    14    1
    27    14    28    1
    28    28    29    1
    29    29    30    1
    30    29    31    1
    31    29    32    1
    32    14     2    1
    33    12     4    1
    34    21    15   ar
    35    12     8    1
@<TRIPOS>MOLECULE
*****
 32 35 0 0 0
SMALL
GASTEIGER

@<TRIPOS>ATOM
      1 C         137.7383  138.4643  166.7217 C.3     1  UNL1        0.0177
      2 C         138.9659  139.3247  166.7754 C.3     1  UNL1        0.0622
      3 C         139.4133  139.9123  168.0810 C.3     1  UNL1        0.0384
      4 C         140.6409  140.7727  168.1348 C.2     1  UNL1       -0.0343
      5 C         141.4210  141.0454  166.8831 C.2     1  UNL1       -0.0106
      6 C         142.6485  141.9057  166.9369 C.2     1  UNL1       -0.0020
      7 C         143.0960  142.4934  168.2425 C.2     1  UNL1        0.0169
      8 C         142.3158  142.2207  169.4942 C.2     1  UNL1        0.0896
      9 N         142.5124  142.6595  170.9150 N.2     1  UNL1       -0.1520
     10 N         141.4064  142.0703  171.7394 N.2     1  UNL1       -0.1507
     11 C         140.5262  141.2674  170.8280 C.2     1  UNL1        0.1054
     12 C         141.0882  141.3603  169.4404 C.3     1  UNL1        0.1032
     13 C         140.9736  140.4577  165.5775 C.3     1  UNL1        0.1068
     14 N         139.7461  139.5974  165.5237 N.3     1  UNL1       -0.2655
     15 C         141.7538  140.7304  164.3257 C.ar    1  UNL1        0.0512
     16 C         142.9630  139.9044  164.0006 C.ar    1  UNL1        0.1399
     17 F         143.3920  138.8057  164.9273 F       1  UNL1       -0.2044
     18 C         143.7432  140.1772  162.7488 C.ar    1  UNL1        0.0295
     19 C         143.3141  141.2760  161.8221 C.ar    1  UNL1        0.0045
     20 C         142.1051  142.1019  162.1472 C.ar    1  UNL1        0.0295
     21 C         141.3248  141.8291  163.3990 C.ar    1  UNL1        0.1399
     22 F         140.1157  142.6551  163.7241 F       1  UNL1       -0.2044
     23 C         144.0943  141.5487  160.5704 C.2     1  UNL1        0.0013
     24 C         143.7294  140.8529  159.2926 C.2     1  UNL1        0.0151
     25 C         144.5096  141.1256  158.0409 C.2     1  UNL1        0.0729
     26 O         144.9582  142.5219  157.7259 O.co2   1  UNL1       -0.5446
     27 O         144.8411  140.0020  157.1040 O.co2   1  UNL1       -0.5446
     28 C         139.2987  139.0097  164.2181 C.3     1  UNL1        0.1054
     29 C         140.1536  137.9935  163.5208 C.3     1  UNL1        0.1486
     30 C         140.4132  137.3123  164.8318 C.3     1  UNL1        0.0368
     31 C         139.8941  138.6746  162.2099 C.3     1  UNL1        0.0368
     32 F         141.0086  136.9772  162.8235 F       1  UNL1       -0.2386
@<TRIPOS>UNITY_ATOM_ATTR
26 1
charge -1
@<TRIPOS>BOND
     1     2     1    1
     2     2     3    1
     3     3     4    1
     4     4     5    2
     5     5     6    1
     6     6     7    2
     7     7     8    1
     8     8     9    2
     9     9    10    1
    10    10    11    2
    11    11    12    1
    12     5    13    1
    13    13    15    1
    14    15    16   ar
    15    16    17    1
    16    16    18   ar
    17    18    19   ar
    18    19    23    1
    19    23    24    2
    20    24    25    1
    21    25    26   ar
    22    25    27   ar
    23    19    20   ar
    24    20    21   ar
    25    21    22    1
    26    13    14    1
    27    14    28    1
    28    28    29    1
    29    29    30    1
    30    29    31    1
    31    29    32    1
    32    14     2    1
    33    12     4    1
    34    21    15   ar
    35    12     8    1
@<TRIPOS>MOLECULE
*****
 32 35 0 0 0
SMALL
GASTEIGER

@<TRIPOS>ATOM
      1 C         137.9736  137.5802  166.0874 C.3     1  UNL1        0.0177
      2 C         138.6135  138.9080  166.3657 C.3     1  UNL1        0.0622
      3 C         139.0340  139.2599  167.7619 C.3     1  UNL1        0.0384
      4 C         139.6739  140.5877  168.0404 C.2     1  UNL1       -0.0343
      5 C         139.8933  141.5636  166.9227 C.2     1  UNL1       -0.0106
      6 C         140.5331  142.8913  167.2011 C.2     1  UNL1       -0.0020
      7 C         140.9536  143.2433  168.5973 C.2     1  UNL1        0.0169
      8 C         140.7342  142.2673  169.7150 C.2     1  UNL1        0.0896
      9 N         141.0424  142.3350  171.1815 N.2     1  UNL1       -0.1520
     10 N         140.5930  141.0490  171.8093 N.2     1  UNL1       -0.1507
     11 C         140.0070  140.1865  170.7310 C.2     1  UNL1        0.1054
     12 C         140.0943  140.9395  169.4366 C.3     1  UNL1        0.1032
     13 C         139.4727  141.2117  165.5264 C.3     1  UNL1        0.1068
     14 N         138.8329  139.8840  165.2480 N.3     1  UNL1       -0.2655
     15 C         139.6921  142.1876  164.4087 C.ar    1  UNL1        0.0512
     16 C         141.0109  142.2266  163.6949 C.ar    1  UNL1        0.1399
     17 F         142.1102  141.2895  164.0989 F       1  UNL1       -0.2044
     18 C         141.2303  143.2025  162.5771 C.ar    1  UNL1        0.0295
     19 C         140.1308  144.1396  162.1731 C.ar    1  UNL1        0.0045
     20 C         138.8122  144.1008  162.8868 C.ar    1  UNL1        0.0295
     21 C         138.5928  143.1247  164.0046 C.ar    1  UNL1        0.1399
     22 F         137.2740  143.0859  164.7184 F       1  UNL1       -0.2044
     23 C         140.3502  145.1156  161.0554 C.2     1  UNL1        0.0013
     24 C         140.8834  144.6385  159.7370 C.2     1  UNL1        0.0151
     25 C         141.1028  145.6144  158.6193 C.2     1  UNL1        0.0729
     26 O         139.9275  146.2355  157.9244 O.co2   1  UNL1       -0.5446
     27 O         142.4977  145.9693  158.1965 O.co2   1  UNL1       -0.5446
     28 C         138.4124  139.5321  163.8518 C.3     1  UNL1        0.1054
     29 C         139.4482  139.3096  162.7901 C.3     1  UNL1        0.1486
     30 C         140.2692  138.5107  163.7585 C.3     1  UNL1        0.0368
     31 C         138.6274  140.1084  161.8216 C.3     1  UNL1        0.0368
     32 F         140.4842  139.0870  161.7283 F       1  UNL1       -0.2386
@<TRIPOS>UNITY_ATOM_ATTR
26 1
charge -1
@<TRIPOS>BOND
     1     2     1    1
     2     2     3    1
     3     3     4    1
     4     4     5    2
     5     5     6    1
     6     6     7    2
     7     7     8    1
     8     8     9    2
     9     9    10    1
    10    10    11    2
    11    11    12    1
    12     5    13    1
    13    13    15    1
    14    15    16   ar
    15    16    17    1
    16    16    18   ar
    17    18    19   ar
    18    19    23    1
    19    23    24    2
    20    24    25    1
    21    25    26   ar
    22    25    27   ar
    23    19    20   ar
    24    20    21   ar
    25    21    22    1
    26    13    14    1
    27    14    28    1
    28    28    29    1
    29    29    30    1
    30    29    31    1
    31    29    32    1
    32    14     2    1
    33    12     4    1
    34    21    15   ar
    35    12     8    1
@<TRIPOS>MOLECULE
*****
 32 35 0 0 0
SMALL
GASTEIGER

@<TRIPOS>ATOM
      1 C         144.1078  138.6242  160.7953 C.3     1  UNL1        0.0177
      2 C         143.4336  139.8695  161.2900 C.3     1  UNL1        0.0622
      3 C         143.2388  141.0346  160.3655 C.3     1  UNL1        0.0384
      4 C         142.5646  142.2799  160.8602 C.2     1  UNL1       -0.0343
      5 C         142.0853  142.3602  162.2792 C.2     1  UNL1       -0.0106
      6 C         141.4112  143.6055  162.7738 C.2     1  UNL1       -0.0020
      7 C         141.2163  144.7706  161.8494 C.2     1  UNL1        0.0169
      8 C         141.6956  144.6903  160.4303 C.2     1  UNL1        0.0896
      9 N         141.6435  145.6709  159.2964 N.2     1  UNL1       -0.1520
     10 N         142.2854  145.0315  158.1009 N.2     1  UNL1       -0.1507
     11 C         142.7343  143.6559  158.4960 C.2     1  UNL1        0.1054
     12 C         142.3698  143.4450  159.9357 C.3     1  UNL1        0.1032
     13 C         142.2802  141.1950  163.2037 C.3     1  UNL1        0.1068
     14 N         142.9543  139.9498  162.7091 N.3     1  UNL1       -0.2655
     15 C         141.8009  141.2753  164.6228 C.ar    1  UNL1        0.0512
     16 C         140.3767  140.9400  164.9536 C.ar    1  UNL1        0.1399
     17 F         139.4319  140.5244  163.8652 F       1  UNL1       -0.2044
     18 C         139.8974  141.0203  166.3726 C.ar    1  UNL1        0.0295
     19 C         140.8424  141.4359  167.4610 C.ar    1  UNL1        0.0045
     20 C         142.2664  141.7712  167.1303 C.ar    1  UNL1        0.0295
     21 C         142.7457  141.6909  165.7111 C.ar    1  UNL1        0.1399
     22 F         144.1699  142.0262  165.3804 F       1  UNL1       -0.2044
     23 C         140.3631  141.5162  168.8801 C.2     1  UNL1        0.0013
     24 C         140.3944  142.8266  169.6093 C.2     1  UNL1        0.0151
     25 C         139.9151  142.9069  171.0284 C.2     1  UNL1        0.0729
     26 O         140.5804  142.0850  172.0923 O.co2   1  UNL1       -0.5446
     27 O         138.7704  143.8090  171.3834 O.co2   1  UNL1       -0.5446
     28 C         143.1492  138.7846  163.6335 C.3     1  UNL1        0.1054
     29 C         141.9610  138.0221  164.1399 C.3     1  UNL1        0.1486
     30 C         142.5311  138.0550  165.5270 C.3     1  UNL1        0.0368
     31 C         141.3909  137.9892  162.7530 C.3     1  UNL1        0.0368
     32 F         140.7727  137.2596  164.6465 F       1  UNL1       -0.2386
@<TRIPOS>UNITY_ATOM_ATTR
26 1
charge -1
@<TRIPOS>BOND
     1     2     1    1
     2     2     3    1
     3     3     4    1
     4     4     5    2
     5     5     6    1
     6     6     7    2
     7     7     8    1
     8     8     9    2
     9     9    10    1
    10    10    11    2
    11    11    12    1
    12     5    13    1
    13    13    15    1
    14    15    16   ar
    15    16    17    1
    16    16    18   ar
    17    18    19   ar
    18    19    23    1
    19    23    24    2
    20    24    25    1
    21    25    26   ar
    22    25    27   ar
    23    19    20   ar
    24    20    21   ar
    25    21    22    1
    26    13    14    1
    27    14    28    1
    28    28    29    1
    29    29    30    1
    30    29    31    1
    31    29    32    1
    32    14     2    1
    33    12     4    1
    34    21    15   ar
    35    12     8    1
@<TRIPOS>MOLECULE
*****
 32 35 0 0 0
SMALL
GASTEIGER

@<TRIPOS>ATOM
      1 C         140.4787  145.5156  160.4472 C.3     1  UNL1        0.0177
      2 C         140.8809  144.1476  160.9129 C.3     1  UNL1        0.0622
      3 C         141.5543  143.2004  159.9646 C.3     1  UNL1        0.0384
      4 C         141.9565  141.8324  160.4302 C.2     1  UNL1       -0.0343
      5 C         141.6853  141.4116  161.8442 C.2     1  UNL1       -0.0106
      6 C         142.0875  140.0437  162.3098 C.2     1  UNL1       -0.0020
      7 C         142.7610  139.0964  161.3615 C.2     1  UNL1        0.0169
      8 C         143.0321  139.5172  159.9475 C.2     1  UNL1        0.0896
      9 N         143.6751  138.8055  158.7943 N.2     1  UNL1       -0.1520
     10 N         143.6703  139.7336  157.6159 N.2     1  UNL1       -0.1507
     11 C         143.0243  141.0189  158.0408 C.2     1  UNL1        0.1054
     12 C         142.6299  140.8853  159.4819 C.3     1  UNL1        0.1032
     13 C         141.0119  142.3589  162.7925 C.3     1  UNL1        0.1068
     14 N         140.6097  143.7268  162.3269 N.3     1  UNL1       -0.2655
     15 C         140.7407  141.9381  164.2065 C.ar    1  UNL1        0.0512
     16 C         141.6903  142.3277  165.3003 C.ar    1  UNL1        0.1399
     17 F         142.9111  143.1383  164.9801 F       1  UNL1       -0.2044
     18 C         141.4191  141.9069  166.7143 C.ar    1  UNL1        0.0295
     19 C         140.1982  141.0963  167.0345 C.ar    1  UNL1        0.0045
     20 C         139.2486  140.7066  165.9408 C.ar    1  UNL1        0.0295
     21 C         139.5199  141.1275  164.5267 C.ar    1  UNL1        0.1399
     22 F         138.5702  140.7378  163.4329 F       1  UNL1       -0.2044
     23 C         139.9270  140.6755  168.4484 C.2     1  UNL1        0.0013
     24 C         140.5627  141.4172  169.5867 C.2     1  UNL1        0.0151
     25 C         140.2916  140.9964  171.0007 C.2     1  UNL1        0.0729
     26 O         139.6641  139.6626  171.2790 O.co2   1  UNL1       -0.5446
     27 O         140.6478  141.9094  172.1363 O.co2   1  UNL1       -0.5446
     28 C         139.9363  144.6741  163.2752 C.3     1  UNL1        0.1054
     29 C         138.5797  144.3468  163.8252 C.3     1  UNL1        0.1486
     30 C         139.0132  144.8252  165.1792 C.3     1  UNL1        0.0368
     31 C         138.1462  143.8684  162.4713 C.3     1  UNL1        0.0368
     32 F         137.2231  144.0195  164.3752 F       1  UNL1       -0.2386
@<TRIPOS>UNITY_ATOM_ATTR
26 1
charge -1
@<TRIPOS>BOND
     1     2     1    1
     2     2     3    1
     3     3     4    1
     4     4     5    2
     5     5     6    1
     6     6     7    2
     7     7     8    1
     8     8     9    2
     9     9    10    1
    10    10    11    2
    11    11    12    1
    12     5    13    1
    13    13    15    1
    14    15    16   ar
    15    16    17    1
    16    16    18   ar
    17    18    19   ar
    18    19    23    1
    19    23    24    2
    20    24    25    1
    21    25    26   ar
    22    25    27   ar
    23    19    20   ar
    24    20    21   ar
    25    21    22    1
    26    13    14    1
    27    14    28    1
    28    28    29    1
    29    29    30    1
    30    29    31    1
    31    29    32    1
    32    14     2    1
    33    12     4    1
    34    21    15   ar
    35    12     8    1
@<TRIPOS>MOLECULE
*****
 32 35 0 0 0
SMALL
GASTEIGER

@<TRIPOS>ATOM
      1 C         144.5611  142.5000  160.3248 C.3     1  UNL1        0.0177
      2 C         143.2104  142.0853  160.8285 C.3     1  UNL1        0.0622
      3 C         142.1416  141.6761  159.8588 C.3     1  UNL1        0.0384
      4 C         140.7909  141.2615  160.3624 C.2     1  UNL1       -0.0343
      5 C         140.5089  141.2560  161.8356 C.2     1  UNL1       -0.0106
      6 C         139.1583  140.8414  162.3391 C.2     1  UNL1       -0.0020
      7 C         138.0894  140.4322  161.3695 C.2     1  UNL1        0.0169
      8 C         138.3714  140.4376  159.8962 C.2     1  UNL1        0.0896
      9 N         137.5219  140.0878  158.7105 N.2     1  UNL1       -0.1520
     10 N         138.3477  140.2862  157.4741 N.2     1  UNL1       -0.1507
     11 C         139.7075  140.7587  157.8957 C.2     1  UNL1        0.1054
     12 C         139.7221  140.8523  159.3927 C.3     1  UNL1        0.1032
     13 C         141.5778  141.6653  162.8053 C.3     1  UNL1        0.1068
     14 N         142.9284  142.0799  162.3017 N.3     1  UNL1       -0.2655
     15 C         141.2958  141.6598  164.2785 C.ar    1  UNL1        0.0512
     16 C         140.6843  142.8649  164.9296 C.ar    1  UNL1        0.1399
     17 F         140.3548  144.0754  164.1074 F       1  UNL1       -0.2044
     18 C         140.4023  142.8595  166.4029 C.ar    1  UNL1        0.0295
     19 C         140.7318  141.6488  167.2250 C.ar    1  UNL1        0.0045
     20 C         141.3433  140.4438  166.5740 C.ar    1  UNL1        0.0295
     21 C         141.6253  140.4493  165.1007 C.ar    1  UNL1        0.1399
     22 F         142.2368  139.2442  164.4497 F       1  UNL1       -0.2044
     23 C         140.4498  141.6434  168.6983 C.2     1  UNL1        0.0013
     24 C         140.2516  142.9384  169.4287 C.2     1  UNL1        0.0151
     25 C         139.9696  142.9330  170.9019 C.2     1  UNL1        0.0729
     26 O         140.8046  142.0929  171.8223 O.co2   1  UNL1       -0.5446
     27 O         138.8525  143.7677  171.4548 O.co2   1  UNL1       -0.5446
     28 C         143.9973  142.4891  163.2714 C.3     1  UNL1        0.1054
     29 C         143.9143  143.8179  163.9622 C.3     1  UNL1        0.1486
     30 C         144.3832  143.1838  165.2382 C.3     1  UNL1        0.0368
     31 C         143.4455  144.4521  162.6864 C.3     1  UNL1        0.0368
     32 F         143.8314  145.1468  164.6532 F       1  UNL1       -0.2386
@<TRIPOS>UNITY_ATOM_ATTR
26 1
charge -1
@<TRIPOS>BOND
     1     2     1    1
     2     2     3    1
     3     3     4    1
     4     4     5    2
     5     5     6    1
     6     6     7    2
     7     7     8    1
     8     8     9    2
     9     9    10    1
    10    10    11    2
    11    11    12    1
    12     5    13    1
    13    13    15    1
    14    15    16   ar
    15    16    17    1
    16    16    18   ar
    17    18    19   ar
    18    19    23    1
    19    23    24    2
    20    24    25    1
    21    25    26   ar
    22    25    27   ar
    23    19    20   ar
    24    20    21   ar
    25    21    22    1
    26    13    14    1
    27    14    28    1
    28    28    29    1
    29    29    30    1
    30    29    31    1
    31    29    32    1
    32    14     2    1
    33    12     4    1
    34    21    15   ar
    35    12     8    1
@<TRIPOS>MOLECULE
*****
 32 35 0 0 0
SMALL
GASTEIGER

@<TRIPOS>ATOM
      1 C         144.0624  137.6076  166.8863 C.3     1  UNL1        0.0177
      2 C         143.1378  138.7885  166.8630 C.3     1  UNL1        0.0622
      3 C         142.8617  139.5499  168.1255 C.3     1  UNL1        0.0384
      4 C         141.9370  140.7308  168.1023 C.2     1  UNL1       -0.0343
      5 C         141.2885  141.1503  166.8165 C.2     1  UNL1       -0.0106
      6 C         140.3639  142.3311  166.7932 C.2     1  UNL1       -0.0020
      7 C         140.0877  143.0926  168.0558 C.2     1  UNL1        0.0169
      8 C         140.7363  142.6730  169.3416 C.2     1  UNL1        0.0896
      9 N         140.6550  143.2257  170.7337 N.2     1  UNL1       -0.1520
     10 N         141.5294  142.3863  171.6173 N.2     1  UNL1       -0.1507
     11 C         142.1511  141.3149  170.7714 C.2     1  UNL1        0.1054
     12 C         141.6609  141.4921  169.3648 C.3     1  UNL1        0.1032
     13 C         141.5647  140.3889  165.5539 C.3     1  UNL1        0.1068
     14 N         142.4892  139.2080  165.5772 N.3     1  UNL1       -0.2655
     15 C         140.9161  140.8084  164.2680 C.ar    1  UNL1        0.0512
     16 C         141.5504  141.8704  163.4196 C.ar    1  UNL1        0.1399
     17 F         142.8333  142.5129  163.8570 F       1  UNL1       -0.2044
     18 C         140.9019  142.2900  162.1338 C.ar    1  UNL1        0.0295
     19 C         139.6189  141.6474  161.6963 C.ar    1  UNL1        0.0045
     20 C         138.9846  140.5855  162.5447 C.ar    1  UNL1        0.0295
     21 C         139.6332  140.1659  163.8306 C.ar    1  UNL1        0.1399
     22 F         138.9988  139.1039  164.6790 F       1  UNL1       -0.2044
     23 C         138.9704  142.0670  160.4105 C.2     1  UNL1        0.0013
     24 C         138.7027  141.0516  159.3394 C.2     1  UNL1        0.0151
     25 C         138.0541  141.4712  158.0535 C.2     1  UNL1        0.0729
     26 O         137.0838  140.5547  157.3690 O.co2   1  UNL1       -0.5446
     27 O         138.3760  142.8072  157.4523 O.co2   1  UNL1       -0.5446
     28 C         142.7654  138.4466  164.3146 C.3     1  UNL1        0.1054
     29 C         143.6003  139.0654  163.2330 C.3     1  UNL1        0.1486
     30 C         142.6511  138.5375  162.1983 C.3     1  UNL1        0.0368
     31 C         144.5494  139.5933  164.2675 C.3     1  UNL1        0.0368
     32 F         144.4352  139.6841  162.1512 F       1  UNL1       -0.2386
@<TRIPOS>UNITY_ATOM_ATTR
26 1
charge -1
@<TRIPOS>BOND
     1     2     1    1
     2     2     3    1
     3     3     4    1
     4     4     5    2
     5     5     6    1
     6     6     7    2
     7     7     8    1
     8     8     9    2
     9     9    10    1
    10    10    11    2
    11    11    12    1
    12     5    13    1
    13    13    15    1
    14    15    16   ar
    15    16    17    1
    16    16    18   ar
    17    18    19   ar
    18    19    23    1
    19    23    24    2
    20    24    25    1
    21    25    26   ar
    22    25    27   ar
    23    19    20   ar
    24    20    21   ar
    25    21    22    1
    26    13    14    1
    27    14    28    1
    28    28    29    1
    29    29    30    1
    30    29    31    1
    31    29    32    1
    32    14     2    1
    33    12     4    1
    34    21    15   ar
    35    12     8    1
