@<TRIPOS>MOLECULE
*****
 28 31 0 0 0
SMALL
GASTEIGER

@<TRIPOS>ATOM
      1 C         140.2819  142.0602  167.0538 C.ar    1  UNL1        0.0873
      2 C         140.0168  143.0401  165.9496 C.ar    1  UNL1        0.0400
      3 C         139.1416  142.6505  164.7952 C.ar    1  UNL1        0.1032
      4 N         138.8765  143.6304  163.6910 N.ar    1  UNL1       -0.2405
      5 C         138.0014  143.2409  162.5367 C.ar    1  UNL1        0.1195
      6 C         137.3914  141.8714  162.4867 C.ar    1  UNL1        0.1196
      7 N         137.6566  140.8915  163.5910 N.ar    1  UNL1       -0.2379
      8 C         138.5317  141.2811  164.7452 C.ar    1  UNL1        0.1302
      9 C         138.7969  140.3011  165.8496 C.ar    1  UNL1        0.1477
     10 N         139.6720  140.6907  167.0038 N.ar    1  UNL1       -0.2292
     11 C         144.4910  142.6665  170.1839 C.3     1  UNL1        0.1538
     12 N         143.0918  142.7284  169.6469 N.ar    1  UNL1       -0.2473
     13 C         142.6229  142.1597  168.3404 C.ar    1  UNL1        0.0982
     14 C         141.1571  142.4497  168.2082 C.ar    1  UNL1        0.0573
     15 C         140.7202  143.1975  169.4328 C.ar    1  UNL1        0.1231
     16 N         141.9158  143.3698  170.3220 N.ar    1  UNL1       -0.1675
     17 N         138.1869  138.9317  165.7996 N.pl3   1  UNL1       -0.3167
     18 H         137.2450  138.8027  166.0553 H       1  UNL1        0.1482
     19 C         139.0120  137.7587  165.3600 C.3     1  UNL1        0.0950
     20 C         139.7273  137.7967  164.0421 C.3     1  UNL1        0.0965
     21 C         138.9468  137.7309  162.7629 C.3     1  UNL1        0.0757
     22 N         139.6621  137.7689  161.4450 N.3     1  UNL1       -0.2971
     23 C         141.1580  137.8727  161.4063 C.3     1  UNL1        0.0742
     24 C         141.9386  137.9385  162.6855 C.3     1  UNL1        0.0837
     25 C         141.2233  137.9005  164.0034 C.3     1  UNL1        0.2680
     26 F         141.0006  137.8983  165.4867 F       1  UNL1       -0.2042
     27 F         142.6419  138.0035  164.4798 F       1  UNL1       -0.2042
     28 H         139.2978  138.5738  160.9353 H       1  UNL1        0.1233
@<TRIPOS>BOND
     1    11    12    1
     2    12    13   ar
     3    13    14   ar
     4    14     1    1
     5     1     2   ar
     6     2     3   ar
     7     3     4   ar
     8     4     5   ar
     9     5     6   ar
    10     6     7   ar
    11     7     8   ar
    12     8     9   ar
    13     9    17    1
    14    17    19    1
    15    20    19    1
    16    20    21    1
    17    21    22    1
    18    22    23    1
    19    23    24    1
    20    24    25    1
    21    25    26    1
    22    25    27    1
    23     9    10   ar
    24    14    15   ar
    25    15    16   ar
    26    16    12   ar
    27    10     1   ar
    28     8     3   ar
    29    25    20    1
    30    17    18    1
    31    22    28    1
@<TRIPOS>MOLECULE
*****
 28 31 0 0 0
SMALL
GASTEIGER

@<TRIPOS>ATOM
      1 C         139.3706  142.5258  164.9212 C.ar    1  UNL1        0.0873
      2 C         140.1710  142.9068  166.1312 C.ar    1  UNL1        0.0400
      3 C         140.3052  141.9455  167.2749 C.ar    1  UNL1        0.1032
      4 N         141.1056  142.3265  168.4849 N.ar    1  UNL1       -0.2405
      5 C         141.2398  141.3652  169.6285 C.ar    1  UNL1        0.1195
      6 C         140.5736  140.0229  169.5621 C.ar    1  UNL1        0.1196
      7 N         139.7732  139.6419  168.3521 N.ar    1  UNL1       -0.2379
      8 C         139.6390  140.6032  167.2085 C.ar    1  UNL1        0.1302
      9 C         138.8386  140.2222  165.9984 C.ar    1  UNL1        0.1477
     10 N         138.7044  141.1834  164.8548 N.ar    1  UNL1       -0.2292
     11 C         140.4654  145.4439  160.6589 C.3     1  UNL1        0.1538
     12 N         139.7396  144.8284  161.8184 N.ar    1  UNL1       -0.2473
     13 C         140.3060  143.8288  162.7830 C.ar    1  UNL1        0.0982
     14 C         139.2363  143.4871  163.7775 C.ar    1  UNL1        0.0573
     15 C         138.0090  144.2753  163.4277 C.ar    1  UNL1        0.1231
     16 N         138.3200  145.1042  162.2169 N.ar    1  UNL1       -0.1675
     17 N         138.1724  138.8798  165.9320 N.pl3   1  UNL1       -0.3167
     18 H         137.2541  138.7689  166.2690 H       1  UNL1        0.1482
     19 C         138.9054  137.7067  165.3522 C.3     1  UNL1        0.0950
     20 C         139.4925  137.7954  163.9747 C.3     1  UNL1        0.0965
     21 C         138.5911  137.8416  162.7767 C.3     1  UNL1        0.0757
     22 N         139.1782  137.9303  161.3993 N.3     1  UNL1       -0.2971
     23 C         140.6668  137.9728  161.2197 C.3     1  UNL1        0.0742
     24 C         141.5683  137.9265  162.4177 C.3     1  UNL1        0.0837
     25 C         140.9812  137.8378  163.7952 C.3     1  UNL1        0.2680
     26 F         140.9015  137.7537  165.2907 F       1  UNL1       -0.2042
     27 F         142.4421  137.8510  164.1351 F       1  UNL1       -0.2042
     28 H         138.8061  138.7799  160.9747 H       1  UNL1        0.1233
@<TRIPOS>BOND
     1    11    12    1
     2    12    13   ar
     3    13    14   ar
     4    14     1    1
     5     1     2   ar
     6     2     3   ar
     7     3     4   ar
     8     4     5   ar
     9     5     6   ar
    10     6     7   ar
    11     7     8   ar
    12     8     9   ar
    13     9    17    1
    14    17    19    1
    15    20    19    1
    16    20    21    1
    17    21    22    1
    18    22    23    1
    19    23    24    1
    20    24    25    1
    21    25    26    1
    22    25    27    1
    23     9    10   ar
    24    14    15   ar
    25    15    16   ar
    26    16    12   ar
    27    10     1   ar
    28     8     3   ar
    29    25    20    1
    30    17    18    1
    31    22    28    1
@<TRIPOS>MOLECULE
*****
 28 31 0 0 0
SMALL
GASTEIGER

@<TRIPOS>ATOM
      1 C         139.8445  139.9842  166.5117 C.ar    1  UNL1        0.0873
      2 C         140.8871  139.1465  165.8326 C.ar    1  UNL1        0.0400
      3 C         140.7627  138.8336  164.3708 C.ar    1  UNL1        0.1032
      4 N         141.8053  137.9959  163.6917 N.ar    1  UNL1       -0.2405
      5 C         141.6808  137.6831  162.2300 C.ar    1  UNL1        0.1195
      6 C         140.5137  138.2079  161.4475 C.ar    1  UNL1        0.1196
      7 N         139.4711  139.0456  162.1266 N.ar    1  UNL1       -0.2379
      8 C         139.5956  139.3584  163.5883 C.ar    1  UNL1        0.1302
      9 C         138.5529  140.1961  164.2674 C.ar    1  UNL1        0.1477
     10 N         138.6774  140.5090  165.7291 N.ar    1  UNL1       -0.2292
     11 C         141.7546  141.6371  171.1486 C.3     1  UNL1        0.1538
     12 N         140.8470  141.0568  170.1048 N.ar    1  UNL1       -0.2473
     13 C         141.1528  140.9312  168.6416 C.ar    1  UNL1        0.0982
     14 C         139.9690  140.2970  167.9735 C.ar    1  UNL1        0.0573
     15 C         138.9316  140.0307  169.0236 C.ar    1  UNL1        0.1231
     16 N         139.4741  140.5003  170.3408 N.ar    1  UNL1       -0.1675
     17 N         137.3858  140.7210  163.4849 N.pl3   1  UNL1       -0.3167
     18 H         136.8120  140.0999  162.9806 H       1  UNL1        0.1482
     19 C         137.0929  142.1920  163.4706 C.3     1  UNL1        0.0950
     20 C         138.0427  143.1394  162.7995 C.3     1  UNL1        0.0965
     21 C         138.4214  142.9299  161.3634 C.3     1  UNL1        0.0757
     22 N         139.3712  143.8773  160.6923 N.3     1  UNL1       -0.2971
     23 C         139.9423  145.0341  161.4574 C.3     1  UNL1        0.0742
     24 C         139.5637  145.2437  162.8937 C.3     1  UNL1        0.0837
     25 C         138.6139  144.2963  163.5647 C.3     1  UNL1        0.2680
     26 F         137.7594  143.6758  164.6300 F       1  UNL1       -0.2042
     27 F         138.8882  145.2377  164.6998 F       1  UNL1       -0.2042
     28 H         138.8782  144.2694  159.8901 H       1  UNL1        0.1233
@<TRIPOS>BOND
     1    11    12    1
     2    12    13   ar
     3    13    14   ar
     4    14     1    1
     5     1     2   ar
     6     2     3   ar
     7     3     4   ar
     8     4     5   ar
     9     5     6   ar
    10     6     7   ar
    11     7     8   ar
    12     8     9   ar
    13     9    17    1
    14    17    19    1
    15    20    19    1
    16    20    21    1
    17    21    22    1
    18    22    23    1
    19    23    24    1
    20    24    25    1
    21    25    26    1
    22    25    27    1
    23     9    10   ar
    24    14    15   ar
    25    15    16   ar
    26    16    12   ar
    27    10     1   ar
    28     8     3   ar
    29    25    20    1
    30    17    18    1
    31    22    28    1
@<TRIPOS>MOLECULE
*****
 28 31 0 0 0
SMALL
GASTEIGER

@<TRIPOS>ATOM
      1 C         141.8239  139.5644  165.3580 C.ar    1  UNL1        0.0873
      2 C         142.3920  138.9754  166.6150 C.ar    1  UNL1        0.0400
      3 C         142.3617  139.7616  167.8922 C.ar    1  UNL1        0.1032
      4 N         142.9298  139.1726  169.1492 N.ar    1  UNL1       -0.2405
      5 C         142.8994  139.9588  170.4262 C.ar    1  UNL1        0.1195
      6 C         142.3010  141.3341  170.4462 C.ar    1  UNL1        0.1196
      7 N         141.7329  141.9232  169.1891 N.ar    1  UNL1       -0.2379
      8 C         141.7633  141.1370  167.9121 C.ar    1  UNL1        0.1302
      9 C         141.1952  141.7260  166.6550 C.ar    1  UNL1        0.1477
     10 N         141.2255  140.9398  165.3779 N.ar    1  UNL1       -0.2292
     11 C         143.3233  137.6634  160.6655 C.3     1  UNL1        0.1538
     12 N         142.5435  137.9044  161.9240 N.ar    1  UNL1       -0.2473
     13 C         142.9117  138.8599  163.0202 C.ar    1  UNL1        0.0982
     14 C         141.8542  138.7782  164.0809 C.ar    1  UNL1        0.0573
     15 C         140.8325  137.7723  163.6403 C.ar    1  UNL1        0.1231
     16 N         141.2584  137.2322  162.3073 N.ar    1  UNL1       -0.1675
     17 N         140.5968  143.1013  166.6749 N.pl3   1  UNL1       -0.3167
     18 H         140.9242  143.7713  167.3177 H       1  UNL1        0.1482
     19 C         139.4996  143.4559  165.7156 C.3     1  UNL1        0.0950
     20 C         139.8128  144.2351  164.4727 C.3     1  UNL1        0.0965
     21 C         141.2228  144.6617  164.1903 C.3     1  UNL1        0.0757
     22 N         141.5360  145.4409  162.9474 N.3     1  UNL1       -0.2971
     23 C         140.4391  145.7935  161.9869 C.3     1  UNL1        0.0742
     24 C         139.0290  145.3669  162.2693 C.3     1  UNL1        0.0837
     25 C         138.7158  144.5877  163.5122 C.3     1  UNL1        0.2680
     26 F         137.9265  143.8409  164.5462 F       1  UNL1       -0.2042
     27 F         137.3448  144.6810  162.9108 F       1  UNL1       -0.2042
     28 H         142.2221  144.8971  162.4240 H       1  UNL1        0.1233
@<TRIPOS>BOND
     1    11    12    1
     2    12    13   ar
     3    13    14   ar
     4    14     1    1
     5     1     2   ar
     6     2     3   ar
     7     3     4   ar
     8     4     5   ar
     9     5     6   ar
    10     6     7   ar
    11     7     8   ar
    12     8     9   ar
    13     9    17    1
    14    17    19    1
    15    20    19    1
    16    20    21    1
    17    21    22    1
    18    22    23    1
    19    23    24    1
    20    24    25    1
    21    25    26    1
    22    25    27    1
    23     9    10   ar
    24    14    15   ar
    25    15    16   ar
    26    16    12   ar
    27    10     1   ar
    28     8     3   ar
    29    25    20    1
    30    17    18    1
    31    22    28    1
@<TRIPOS>MOLECULE
*****
 28 31 0 0 0
SMALL
GASTEIGER

@<TRIPOS>ATOM
      1 C         140.3001  142.5010  166.1504 C.ar    1  UNL1        0.0873
      2 C         139.7918  141.1692  165.6836 C.ar    1  UNL1        0.0400
      3 C         139.1074  141.0517  164.3540 C.ar    1  UNL1        0.1032
      4 N         138.5991  139.7199  163.8872 N.ar    1  UNL1       -0.2405
      5 C         137.9147  139.6025  162.5577 C.ar    1  UNL1        0.1195
      6 C         137.7386  140.8168  161.6949 C.ar    1  UNL1        0.1196
      7 N         138.2469  142.1486  162.1616 N.ar    1  UNL1       -0.2379
      8 C         138.9313  142.2661  163.4912 C.ar    1  UNL1        0.1302
      9 C         139.4396  143.5979  163.9580 C.ar    1  UNL1        0.1477
     10 N         140.1240  143.7154  165.2876 N.ar    1  UNL1       -0.2292
     11 C         143.9672  142.3126  169.9448 C.3     1  UNL1        0.1538
     12 N         142.6702  142.5319  169.2241 N.ar    1  UNL1       -0.2473
     13 C         142.4100  142.2549  167.7729 C.ar    1  UNL1        0.0982
     14 C         140.9845  142.6185  167.4800 C.ar    1  UNL1        0.0573
     15 C         140.3637  143.1203  168.7499 C.ar    1  UNL1        0.1231
     16 N         141.4054  143.0668  169.8278 N.ar    1  UNL1       -0.1675
     17 N         139.2635  144.8122  163.0952 N.pl3   1  UNL1       -0.3167
     18 H         138.3593  145.1416  162.8876 H       1  UNL1        0.1482
     19 C         140.4651  145.5247  162.5488 C.3     1  UNL1        0.0950
     20 C         141.7209  144.7593  162.2535 C.3     1  UNL1        0.0965
     21 C         141.7679  143.8164  161.0879 C.3     1  UNL1        0.0757
     22 N         143.0237  143.0510  160.7926 N.3     1  UNL1       -0.2971
     23 C         144.2325  143.2286  161.6628 C.3     1  UNL1        0.0742
     24 C         144.1855  144.1716  162.8285 C.3     1  UNL1        0.0837
     25 C         142.9297  144.9369  163.1238 C.3     1  UNL1        0.2680
     26 F         141.9791  145.8774  163.8033 F       1  UNL1       -0.2042
     27 F         143.8083  145.4411  164.2300 F       1  UNL1       -0.2042
     28 H         143.3044  143.3005  159.8442 H       1  UNL1        0.1233
@<TRIPOS>BOND
     1    11    12    1
     2    12    13   ar
     3    13    14   ar
     4    14     1    1
     5     1     2   ar
     6     2     3   ar
     7     3     4   ar
     8     4     5   ar
     9     5     6   ar
    10     6     7   ar
    11     7     8   ar
    12     8     9   ar
    13     9    17    1
    14    17    19    1
    15    20    19    1
    16    20    21    1
    17    21    22    1
    18    22    23    1
    19    23    24    1
    20    24    25    1
    21    25    26    1
    22    25    27    1
    23     9    10   ar
    24    14    15   ar
    25    15    16   ar
    26    16    12   ar
    27    10     1   ar
    28     8     3   ar
    29    25    20    1
    30    17    18    1
    31    22    28    1
@<TRIPOS>MOLECULE
*****
 28 31 0 0 0
SMALL
GASTEIGER

@<TRIPOS>ATOM
      1 C         139.8025  139.6711  165.2093 C.ar    1  UNL1        0.0873
      2 C         139.0736  139.5368  166.5133 C.ar    1  UNL1        0.0400
      3 C         139.7335  139.9686  167.7894 C.ar    1  UNL1        0.1032
      4 N         139.0045  139.8343  169.0934 N.ar    1  UNL1       -0.2405
      5 C         139.6644  140.2661  170.3693 C.ar    1  UNL1        0.1195
      6 C         141.0532  140.8322  170.3412 C.ar    1  UNL1        0.1196
      7 N         141.7821  140.9665  169.0372 N.ar    1  UNL1       -0.2379
      8 C         141.1223  140.5347  167.7612 C.ar    1  UNL1        0.1302
      9 C         141.8512  140.6690  166.4571 C.ar    1  UNL1        0.1477
     10 N         141.1913  140.2372  165.1812 N.ar    1  UNL1       -0.2292
     11 C         137.3722  139.7882  160.5230 C.3     1  UNL1        0.1538
     12 N         138.0255  139.2932  161.7792 N.ar    1  UNL1       -0.2473
     13 C         138.5903  140.1477  162.8751 C.ar    1  UNL1        0.0982
     14 C         139.1426  139.2393  163.9332 C.ar    1  UNL1        0.0573
     15 C         138.9194  137.8234  163.4914 C.ar    1  UNL1        0.1231
     16 N         138.2290  137.8566  162.1601 N.ar    1  UNL1       -0.1675
     17 N         143.2400  141.2351  166.4290 N.pl3   1  UNL1       -0.3167
     18 H         143.9834  140.7358  166.8379 H       1  UNL1        0.1482
     19 C         143.4960  142.5619  165.7779 C.3     1  UNL1        0.0950
     20 C         143.9889  142.6201  164.3624 C.3     1  UNL1        0.0965
     21 C         145.2501  141.9052  163.9774 C.3     1  UNL1        0.0757
     22 N         145.7429  141.9634  162.5619 N.3     1  UNL1       -0.2971
     23 C         144.9746  142.7365  161.5314 C.3     1  UNL1        0.0742
     24 C         143.7134  143.4515  161.9164 C.3     1  UNL1        0.0837
     25 C         143.2205  143.3933  163.3319 C.3     1  UNL1        0.2680
     26 F         142.3566  143.6324  164.5345 F       1  UNL1       -0.2042
     27 F         142.1522  144.2495  162.7191 F       1  UNL1       -0.2042
     28 H         145.7960  141.0008  162.2287 H       1  UNL1        0.1233
@<TRIPOS>BOND
     1    11    12    1
     2    12    13   ar
     3    13    14   ar
     4    14     1    1
     5     1     2   ar
     6     2     3   ar
     7     3     4   ar
     8     4     5   ar
     9     5     6   ar
    10     6     7   ar
    11     7     8   ar
    12     8     9   ar
    13     9    17    1
    14    17    19    1
    15    20    19    1
    16    20    21    1
    17    21    22    1
    18    22    23    1
    19    23    24    1
    20    24    25    1
    21    25    26    1
    22    25    27    1
    23     9    10   ar
    24    14    15   ar
    25    15    16   ar
    26    16    12   ar
    27    10     1   ar
    28     8     3   ar
    29    25    20    1
    30    17    18    1
    31    22    28    1
@<TRIPOS>MOLECULE
*****
 28 31 0 0 0
SMALL
GASTEIGER

@<TRIPOS>ATOM
      1 C         140.7306  142.3829  165.7228 C.ar    1  UNL1        0.0873
      2 C         140.6283  142.5418  167.2108 C.ar    1  UNL1        0.0400
      3 C         141.2863  141.5452  168.1184 C.ar    1  UNL1        0.1032
      4 N         141.1841  141.7040  169.6065 N.ar    1  UNL1       -0.2405
      5 C         141.8421  140.7074  170.5140 C.ar    1  UNL1        0.1195
      6 C         142.6023  139.5519  169.9336 C.ar    1  UNL1        0.1196
      7 N         142.7045  139.3930  168.4456 N.ar    1  UNL1       -0.2379
      8 C         142.0465  140.3896  167.5380 C.ar    1  UNL1        0.1302
      9 C         142.1487  140.2308  166.0499 C.ar    1  UNL1        0.1477
     10 N         141.4908  141.2274  165.1423 N.ar    1  UNL1       -0.2292
     11 C         139.9738  146.0589  162.0085 C.3     1  UNL1        0.1538
     12 N         139.7248  145.0693  163.1078 N.ar    1  UNL1       -0.2473
     13 C         140.7613  144.2178  163.7792 C.ar    1  UNL1        0.0982
     14 C         140.0726  143.3796  164.8151 C.ar    1  UNL1        0.0573
     15 C         138.6104  143.7130  164.7840 C.ar    1  UNL1        0.1231
     16 N         138.3955  144.7573  163.7289 N.ar    1  UNL1       -0.1675
     17 N         142.9089  139.0753  165.4694 N.pl3   1  UNL1       -0.3167
     18 H         143.8876  139.1272  165.3757 H       1  UNL1        0.1482
     19 C         142.1781  137.8407  165.0318 C.3     1  UNL1        0.0950
     20 C         141.2498  137.8962  163.8549 C.3     1  UNL1        0.0965
     21 C         141.7912  138.1812  162.4854 C.3     1  UNL1        0.0757
     22 N         140.8629  138.2367  161.3085 N.3     1  UNL1       -0.2971
     23 C         139.3932  138.0072  161.5010 C.3     1  UNL1        0.0742
     24 C         138.8517  137.7221  162.8705 C.3     1  UNL1        0.0837
     25 C         139.7800  137.6666  164.0475 C.3     1  UNL1        0.2680
     26 F         140.2551  137.5128  165.4618 F       1  UNL1       -0.2042
     27 F         138.4752  137.3836  164.7312 F       1  UNL1       -0.2042
     28 H         141.1865  137.5329  160.6449 H       1  UNL1        0.1233
@<TRIPOS>BOND
     1    11    12    1
     2    12    13   ar
     3    13    14   ar
     4    14     1    1
     5     1     2   ar
     6     2     3   ar
     7     3     4   ar
     8     4     5   ar
     9     5     6   ar
    10     6     7   ar
    11     7     8   ar
    12     8     9   ar
    13     9    17    1
    14    17    19    1
    15    20    19    1
    16    20    21    1
    17    21    22    1
    18    22    23    1
    19    23    24    1
    20    24    25    1
    21    25    26    1
    22    25    27    1
    23     9    10   ar
    24    14    15   ar
    25    15    16   ar
    26    16    12   ar
    27    10     1   ar
    28     8     3   ar
    29    25    20    1
    30    17    18    1
    31    22    28    1
@<TRIPOS>MOLECULE
*****
 28 31 0 0 0
SMALL
GASTEIGER

@<TRIPOS>ATOM
      1 C         138.6588  141.0995  164.0535 C.ar    1  UNL1        0.0873
      2 C         138.4965  140.2235  162.8468 C.ar    1  UNL1        0.0400
      3 C         138.3908  140.8381  161.4825 C.ar    1  UNL1        0.1032
      4 N         138.2285  139.9620  160.2759 N.ar    1  UNL1       -0.2405
      5 C         138.1227  140.5766  158.9117 C.ar    1  UNL1        0.1195
      6 C         138.1792  142.0672  158.7542 C.ar    1  UNL1        0.1196
      7 N         138.3415  142.9433  159.9609 N.ar    1  UNL1       -0.2379
      8 C         138.4473  142.3287  161.3251 C.ar    1  UNL1        0.1302
      9 C         138.6096  143.2047  162.5319 C.ar    1  UNL1        0.1477
     10 N         138.7154  142.5902  163.8960 N.ar    1  UNL1       -0.2292
     11 C         140.0860  140.1919  169.0556 C.3     1  UNL1        0.1538
     12 N         139.4207  140.0678  167.7170 N.ar    1  UNL1       -0.2473
     13 C         139.6248  140.9790  166.5430 C.ar    1  UNL1        0.0982
     14 C         138.7646  140.4849  165.4178 C.ar    1  UNL1        0.0573
     15 C         138.0288  139.2686  165.8963 C.ar    1  UNL1        0.1231
     16 N         138.4342  139.0107  167.3173 N.ar    1  UNL1       -0.1675
     17 N         138.6661  144.6954  162.3744 N.pl3   1  UNL1       -0.3167
     18 H         137.8578  145.1939  162.1147 H       1  UNL1        0.1482
     19 C         139.9540  145.4264  162.6125 C.3     1  UNL1        0.0950
     20 C         141.2611  144.7726  162.2745 C.3     1  UNL1        0.0965
     21 C         141.5936  144.4547  160.8469 C.3     1  UNL1        0.0757
     22 N         142.9007  143.8009  160.5089 N.3     1  UNL1       -0.2971
     23 C         143.8752  143.4651  161.5987 C.3     1  UNL1        0.0742
     24 C         143.5427  143.7831  163.0264 C.3     1  UNL1        0.0837
     25 C         142.2356  144.4369  163.3643 C.3     1  UNL1        0.2680
     26 F         141.1342  145.0477  164.1790 F       1  UNL1       -0.2042
     27 F         142.8276  144.3132  164.7370 F       1  UNL1       -0.2042
     28 H         143.3842  144.4256  159.8637 H       1  UNL1        0.1233
@<TRIPOS>BOND
     1    11    12    1
     2    12    13   ar
     3    13    14   ar
     4    14     1    1
     5     1     2   ar
     6     2     3   ar
     7     3     4   ar
     8     4     5   ar
     9     5     6   ar
    10     6     7   ar
    11     7     8   ar
    12     8     9   ar
    13     9    17    1
    14    17    19    1
    15    20    19    1
    16    20    21    1
    17    21    22    1
    18    22    23    1
    19    23    24    1
    20    24    25    1
    21    25    26    1
    22    25    27    1
    23     9    10   ar
    24    14    15   ar
    25    15    16   ar
    26    16    12   ar
    27    10     1   ar
    28     8     3   ar
    29    25    20    1
    30    17    18    1
    31    22    28    1
@<TRIPOS>MOLECULE
*****
 28 31 0 0 0
SMALL
GASTEIGER

@<TRIPOS>ATOM
      1 C         140.0917  143.8760  159.9060 C.ar    1  UNL1        0.0873
      2 C         141.5625  143.6184  160.0484 C.ar    1  UNL1        0.0400
      3 C         142.2689  143.9868  161.3194 C.ar    1  UNL1        0.1032
      4 N         143.7397  143.7292  161.4618 N.ar    1  UNL1       -0.2405
      5 C         144.4460  144.0976  162.7327 C.ar    1  UNL1        0.1195
      6 C         143.6815  144.7236  163.8613 C.ar    1  UNL1        0.1196
      7 N         142.2107  144.9812  163.7189 N.ar    1  UNL1       -0.2379
      8 C         141.5044  144.6128  162.4479 C.ar    1  UNL1        0.1302
      9 C         140.0335  144.8705  162.3055 C.ar    1  UNL1        0.1477
     10 N         139.3272  144.5021  161.0345 N.ar    1  UNL1       -0.2292
     11 C         136.7980  141.5834  156.4742 C.3     1  UNL1        0.1538
     12 N         137.8713  142.4538  157.0576 N.ar    1  UNL1       -0.2473
     13 C         138.2793  142.5033  158.5003 C.ar    1  UNL1        0.0982
     14 C         139.3853  143.5076  158.6350 C.ar    1  UNL1        0.0573
     15 C         139.6609  144.0789  157.2757 C.ar    1  UNL1        0.1231
     16 N         138.7252  143.4276  156.3008 N.ar    1  UNL1       -0.1675
     17 N         139.2690  145.4965  163.4340 N.pl3   1  UNL1       -0.3167
     18 H         139.0917  146.4649  163.4310 H       1  UNL1        0.1482
     19 C         138.7746  144.6471  164.5671 C.3     1  UNL1        0.0950
     20 C         138.4524  143.2006  164.3351 C.3     1  UNL1        0.0965
     21 C         137.3527  142.8196  163.3888 C.3     1  UNL1        0.0757
     22 N         137.0304  141.3732  163.1567 N.3     1  UNL1       -0.2971
     23 C         137.8079  140.3076  163.8709 C.3     1  UNL1        0.0742
     24 C         138.9077  140.6886  164.8173 C.3     1  UNL1        0.0837
     25 C         139.2299  142.1350  165.0493 C.3     1  UNL1        0.2680
     26 F         139.9033  143.3591  165.5953 F       1  UNL1       -0.2042
     27 F         140.2413  141.4946  165.9532 F       1  UNL1       -0.2042
     28 H         137.1460  141.2024  162.1578 H       1  UNL1        0.1233
@<TRIPOS>BOND
     1    11    12    1
     2    12    13   ar
     3    13    14   ar
     4    14     1    1
     5     1     2   ar
     6     2     3   ar
     7     3     4   ar
     8     4     5   ar
     9     5     6   ar
    10     6     7   ar
    11     7     8   ar
    12     8     9   ar
    13     9    17    1
    14    17    19    1
    15    20    19    1
    16    20    21    1
    17    21    22    1
    18    22    23    1
    19    23    24    1
    20    24    25    1
    21    25    26    1
    22    25    27    1
    23     9    10   ar
    24    14    15   ar
    25    15    16   ar
    26    16    12   ar
    27    10     1   ar
    28     8     3   ar
    29    25    20    1
    30    17    18    1
    31    22    28    1
