@<TRIPOS>MOLECULE
*****
 26 29 0 0 0
SMALL
GASTEIGER

@<TRIPOS>ATOM
      1 C         143.1629  143.2691  170.6609 C.3     1  UNL1        0.0307
      2 C         142.4209  142.5162  169.5966 C.ar    1  UNL1       -0.0242
      3 C         143.0804  141.3678  168.8922 C.ar    1  UNL1        0.0160
      4 C         142.3384  140.6149  167.8279 C.ar    1  UNL1        0.0980
      5 N         142.7262  139.4487  166.9680 N.ar    1  UNL1       -0.2310
      6 C         141.5644  139.1235  166.0766 C.ar    1  UNL1        0.1205
      7 N         140.4587  140.0888  166.3857 N.ar    1  UNL1       -0.3107
      8 C         140.9370  141.0105  167.4681 C.ar    1  UNL1        0.0785
      9 C         140.2776  142.1589  168.1725 C.ar    1  UNL1        0.0142
     10 C         141.0195  142.9118  169.2368 C.ar    1  UNL1       -0.0243
     11 C         140.3600  144.0602  169.9412 C.3     1  UNL1        0.0307
     12 C         141.5168  138.0258  165.0554 C.3     1  UNL1        0.0639
     13 C         141.2815  138.3548  163.6110 C.3     1  UNL1        0.0075
     14 C         140.1506  137.7068  162.8687 C.3     1  UNL1        0.0004
     15 C         139.9153  138.0358  161.4243 C.3     1  UNL1        0.0000
     16 C         140.8110  139.0130  160.7221 C.3     1  UNL1        0.0000
     17 C         141.9420  139.6610  161.4644 C.3     1  UNL1        0.0000
     18 C         142.1772  139.3319  162.9089 C.3     1  UNL1        0.0004
     19 C         139.1111  140.1258  165.7279 C.3     1  UNL1        0.1339
     20 C         138.9509  140.7681  164.3819 C.ar    1  UNL1        0.0005
     21 C         137.8238  140.3541  163.4827 C.ar    1  UNL1       -0.0015
     22 C         137.6636  140.9963  162.1367 C.ar    1  UNL1        0.0111
     23 C         138.6303  142.0525  161.6897 C.ar    1  UNL1        0.0577
     24 CL        138.4701  142.6948  160.3437 Cl      1  UNL1       -0.0822
     25 C         139.7574  142.4665  162.5888 C.ar    1  UNL1        0.0111
     26 C         139.9177  141.8242  163.9349 C.ar    1  UNL1       -0.0015
@<TRIPOS>BOND
     1     1     2    1
     2     2     3   ar
     3     3     4   ar
     4     4     5   ar
     5     5     6   ar
     6     6    12    1
     7    12    13    1
     8    13    14    1
     9    14    15    1
    10    15    16    1
    11    16    17    1
    12    17    18    1
    13     6     7   ar
    14     7    19    1
    15    19    20    1
    16    20    21   ar
    17    21    22   ar
    18    22    23   ar
    19    23    24    1
    20    23    25   ar
    21    25    26   ar
    22     7     8   ar
    23     8     9   ar
    24     9    10   ar
    25    10    11    1
    26    10     2   ar
    27     8     4   ar
    28    18    13    1
    29    26    20   ar
@<TRIPOS>MOLECULE
*****
 26 29 0 0 0
SMALL
GASTEIGER

@<TRIPOS>ATOM
      1 C         140.9253  142.1827  171.2353 C.3     1  UNL1        0.0307
      2 C         141.0173  141.4214  169.9461 C.ar    1  UNL1       -0.0242
      3 C         139.7767  140.8625  169.3150 C.ar    1  UNL1        0.0160
      4 C         139.8687  140.1012  168.0258 C.ar    1  UNL1        0.0980
      5 N         138.8260  139.4388  167.1748 N.ar    1  UNL1       -0.2310
      6 C         139.5143  138.8271  165.9907 C.ar    1  UNL1        0.1205
      7 N         140.9823  139.1115  166.1100 N.ar    1  UNL1       -0.3107
      8 C         141.2013  139.8989  167.3677 C.ar    1  UNL1        0.0785
      9 C         142.4419  140.4579  167.9988 C.ar    1  UNL1        0.0142
     10 C         142.3499  141.2192  169.2880 C.ar    1  UNL1       -0.0243
     11 C         143.5907  141.7781  169.9191 C.3     1  UNL1        0.0307
     12 C         138.8511  138.0649  164.8820 C.3     1  UNL1        0.0639
     13 C         138.4756  138.7657  163.6101 C.3     1  UNL1        0.0075
     14 C         138.4751  138.0144  162.3118 C.3     1  UNL1        0.0004
     15 C         138.0996  138.7153  161.0399 C.3     1  UNL1        0.0000
     16 C         137.7246  140.1674  161.0662 C.3     1  UNL1        0.0000
     17 C         137.7251  140.9187  162.3645 C.3     1  UNL1        0.0000
     18 C         138.1006  140.2178  163.6365 C.3     1  UNL1        0.0004
     19 C         142.0448  138.6836  165.1415 C.3     1  UNL1        0.1339
     20 C         141.9332  139.0561  163.6928 C.ar    1  UNL1        0.0005
     21 C         142.0841  138.0042  162.6341 C.ar    1  UNL1       -0.0015
     22 C         141.9726  138.3767  161.1854 C.ar    1  UNL1        0.0111
     23 C         141.7101  139.8011  160.7953 C.ar    1  UNL1        0.0577
     24 CL        141.5986  140.1736  159.3466 Cl      1  UNL1       -0.0822
     25 C         141.5592  140.8530  161.8539 C.ar    1  UNL1        0.0111
     26 C         141.6708  140.4805  163.3027 C.ar    1  UNL1       -0.0015
@<TRIPOS>BOND
     1     1     2    1
     2     2     3   ar
     3     3     4   ar
     4     4     5   ar
     5     5     6   ar
     6     6    12    1
     7    12    13    1
     8    13    14    1
     9    14    15    1
    10    15    16    1
    11    16    17    1
    12    17    18    1
    13     6     7   ar
    14     7    19    1
    15    19    20    1
    16    20    21   ar
    17    21    22   ar
    18    22    23   ar
    19    23    24    1
    20    23    25   ar
    21    25    26   ar
    22     7     8   ar
    23     8     9   ar
    24     9    10   ar
    25    10    11    1
    26    10     2   ar
    27     8     4   ar
    28    18    13    1
    29    26    20   ar
@<TRIPOS>MOLECULE
*****
 26 29 0 0 0
SMALL
GASTEIGER

@<TRIPOS>ATOM
      1 C         142.3092  143.2482  170.2952 C.3     1  UNL1        0.0307
      2 C         141.9270  142.2676  169.2265 C.ar    1  UNL1       -0.0242
      3 C         142.9263  141.8705  168.1807 C.ar    1  UNL1        0.0160
      4 C         142.5440  140.8899  167.1120 C.ar    1  UNL1        0.0980
      5 N         143.3099  140.3137  165.9580 N.ar    1  UNL1       -0.2310
      6 C         142.4016  139.3740  165.2219 C.ar    1  UNL1        0.1205
      7 N         141.0744  139.3694  165.9209 N.ar    1  UNL1       -0.3107
      8 C         141.1625  140.3062  167.0890 C.ar    1  UNL1        0.0785
      9 C         140.1631  140.7032  168.1348 C.ar    1  UNL1        0.0142
     10 C         140.5454  141.6839  169.2035 C.ar    1  UNL1       -0.0243
     11 C         139.5460  142.0809  170.2493 C.3     1  UNL1        0.0307
     12 C         142.7579  138.5786  164.0010 C.3     1  UNL1        0.0639
     13 C         142.2585  139.0086  162.6536 C.3     1  UNL1        0.0075
     14 C         141.9992  137.9851  161.5881 C.3     1  UNL1        0.0004
     15 C         141.4999  138.4152  160.2407 C.3     1  UNL1        0.0000
     16 C         141.2598  139.8688  159.9586 C.3     1  UNL1        0.0000
     17 C         141.5191  140.8923  161.0241 C.3     1  UNL1        0.0000
     18 C         142.0185  140.4622  162.3716 C.3     1  UNL1        0.0004
     19 C         139.8705  138.5685  165.5218 C.3     1  UNL1        0.1339
     20 C         139.1747  138.8561  164.2245 C.ar    1  UNL1        0.0005
     21 C         138.8775  137.7387  163.2690 C.ar    1  UNL1       -0.0015
     22 C         138.1817  138.0262  161.9716 C.ar    1  UNL1        0.0111
     23 C         137.7830  139.4312  161.6298 C.ar    1  UNL1        0.0577
     24 CL        137.0872  139.7188  160.3324 Cl      1  UNL1       -0.0822
     25 C         138.0801  140.5487  162.5852 C.ar    1  UNL1        0.0111
     26 C         138.7760  140.2612  163.8826 C.ar    1  UNL1       -0.0015
@<TRIPOS>BOND
     1     1     2    1
     2     2     3   ar
     3     3     4   ar
     4     4     5   ar
     5     5     6   ar
     6     6    12    1
     7    12    13    1
     8    13    14    1
     9    14    15    1
    10    15    16    1
    11    16    17    1
    12    17    18    1
    13     6     7   ar
    14     7    19    1
    15    19    20    1
    16    20    21   ar
    17    21    22   ar
    18    22    23   ar
    19    23    24    1
    20    23    25   ar
    21    25    26   ar
    22     7     8   ar
    23     8     9   ar
    24     9    10   ar
    25    10    11    1
    26    10     2   ar
    27     8     4   ar
    28    18    13    1
    29    26    20   ar
@<TRIPOS>MOLECULE
*****
 26 29 0 0 0
SMALL
GASTEIGER

@<TRIPOS>ATOM
      1 C         140.7171  142.1270  171.0391 C.3     1  UNL1        0.0307
      2 C         140.8664  141.3395  169.7712 C.ar    1  UNL1       -0.0242
      3 C         139.6518  140.7992  169.0765 C.ar    1  UNL1        0.0160
      4 C         139.8010  140.0118  167.8086 C.ar    1  UNL1        0.0980
      5 N         138.7945  139.3591  166.9080 N.ar    1  UNL1       -0.2310
      6 C         139.5364  138.7085  165.7783 C.ar    1  UNL1        0.1205
      7 N         141.0014  138.9591  165.9806 N.ar    1  UNL1       -0.3107
      8 C         141.1649  139.7646  167.2354 C.ar    1  UNL1        0.0785
      9 C         142.3796  140.3049  167.9301 C.ar    1  UNL1        0.0142
     10 C         142.2303  141.0924  169.1980 C.ar    1  UNL1       -0.0243
     11 C         143.4450  141.6327  169.8927 C.3     1  UNL1        0.0307
     12 C         138.9213  137.9419  164.6451 C.3     1  UNL1        0.0639
     13 C         138.8629  138.5477  163.2741 C.3     1  UNL1        0.0075
     14 C         139.5187  137.8520  162.1182 C.3     1  UNL1        0.0004
     15 C         139.4603  138.4578  160.7473 C.3     1  UNL1        0.0000
     16 C         138.7462  139.7593  160.5321 C.3     1  UNL1        0.0000
     17 C         138.0904  140.4549  161.6880 C.3     1  UNL1        0.0000
     18 C         138.1488  139.8491  163.0591 C.3     1  UNL1        0.0004
     19 C         142.1085  138.4872  165.0853 C.3     1  UNL1        0.1339
     20 C         142.8617  139.4719  164.2410 C.ar    1  UNL1        0.0005
     21 C         142.1682  140.1788  163.1143 C.ar    1  UNL1       -0.0015
     22 C         142.9214  141.1636  162.2699 C.ar    1  UNL1        0.0111
     23 C         144.3681  141.4415  162.5522 C.ar    1  UNL1        0.0577
     24 CL        145.1213  142.4262  161.7078 Cl      1  UNL1       -0.0822
     25 C         145.0617  140.7346  163.6788 C.ar    1  UNL1        0.0111
     26 C         144.3085  139.7498  164.5232 C.ar    1  UNL1       -0.0015
@<TRIPOS>BOND
     1     1     2    1
     2     2     3   ar
     3     3     4   ar
     4     4     5   ar
     5     5     6   ar
     6     6    12    1
     7    12    13    1
     8    13    14    1
     9    14    15    1
    10    15    16    1
    11    16    17    1
    12    17    18    1
    13     6     7   ar
    14     7    19    1
    15    19    20    1
    16    20    21   ar
    17    21    22   ar
    18    22    23   ar
    19    23    24    1
    20    23    25   ar
    21    25    26   ar
    22     7     8   ar
    23     8     9   ar
    24     9    10   ar
    25    10    11    1
    26    10     2   ar
    27     8     4   ar
    28    18    13    1
    29    26    20   ar
@<TRIPOS>MOLECULE
*****
 26 29 0 0 0
SMALL
GASTEIGER

@<TRIPOS>ATOM
      1 C         140.0049  143.9634  156.3549 C.3     1  UNL1        0.0307
      2 C         139.8499  143.8107  157.8390 C.ar    1  UNL1       -0.0242
      3 C         138.8542  142.8350  158.3927 C.ar    1  UNL1        0.0160
      4 C         138.6991  142.6823  159.8768 C.ar    1  UNL1        0.0980
      5 N         137.8074  141.8083  160.7082 N.ar    1  UNL1       -0.2310
      6 C         138.0970  142.0913  162.1525 C.ar    1  UNL1        0.1205
      7 N         139.1677  143.1401  162.2137 N.ar    1  UNL1       -0.3107
      8 C         139.5398  143.5054  160.8073 C.ar    1  UNL1        0.0785
      9 C         140.5355  144.4811  160.2537 C.ar    1  UNL1        0.0142
     10 C         140.6905  144.6337  158.7695 C.ar    1  UNL1       -0.0243
     11 C         141.6862  145.6095  158.2159 C.3     1  UNL1        0.0307
     12 C         137.4326  141.4398  163.3290 C.3     1  UNL1        0.0639
     13 C         138.0029  140.1797  163.9095 C.3     1  UNL1        0.0075
     14 C         138.1697  140.0464  165.3943 C.3     1  UNL1        0.0004
     15 C         138.7400  138.7864  165.9748 C.3     1  UNL1        0.0000
     16 C         139.1435  137.6596  165.0706 C.3     1  UNL1        0.0000
     17 C         138.9767  137.7929  163.5858 C.3     1  UNL1        0.0000
     18 C         138.4064  139.0530  163.0053 C.3     1  UNL1        0.0004
     19 C         139.7619  143.7215  163.4622 C.3     1  UNL1        0.1339
     20 C         140.4203  142.8243  164.4679 C.ar    1  UNL1        0.0005
     21 C         140.2245  143.0706  165.9345 C.ar    1  UNL1       -0.0015
     22 C         140.8830  142.1734  166.9402 C.ar    1  UNL1        0.0111
     23 C         141.7372  141.0298  166.4793 C.ar    1  UNL1        0.0577
     24 CL        142.3957  140.1325  167.4850 Cl      1  UNL1       -0.0822
     25 C         141.9330  140.7834  165.0127 C.ar    1  UNL1        0.0111
     26 C         141.2746  141.6807  164.0070 C.ar    1  UNL1       -0.0015
@<TRIPOS>BOND
     1     1     2    1
     2     2     3   ar
     3     3     4   ar
     4     4     5   ar
     5     5     6   ar
     6     6    12    1
     7    12    13    1
     8    13    14    1
     9    14    15    1
    10    15    16    1
    11    16    17    1
    12    17    18    1
    13     6     7   ar
    14     7    19    1
    15    19    20    1
    16    20    21   ar
    17    21    22   ar
    18    22    23   ar
    19    23    24    1
    20    23    25   ar
    21    25    26   ar
    22     7     8   ar
    23     8     9   ar
    24     9    10   ar
    25    10    11    1
    26    10     2   ar
    27     8     4   ar
    28    18    13    1
    29    26    20   ar
@<TRIPOS>MOLECULE
*****
 26 29 0 0 0
SMALL
GASTEIGER

@<TRIPOS>ATOM
      1 C         140.4149  143.6820  156.4746 C.3     1  UNL1        0.0307
      2 C         140.0884  142.8155  157.6546 C.ar    1  UNL1       -0.0242
      3 C         139.2362  143.3521  158.7662 C.ar    1  UNL1        0.0160
      4 C         138.9097  142.4855  159.9462 C.ar    1  UNL1        0.0980
      5 N         138.1000  142.7380  161.1835 N.ar    1  UNL1       -0.2310
      6 C         138.1252  141.4908  162.0165 C.ar    1  UNL1        0.1205
      7 N         138.9505  140.4675  161.2940 N.ar    1  UNL1       -0.3107
      8 C         139.4353  141.0823  160.0146 C.ar    1  UNL1        0.0785
      9 C         140.2875  140.5457  158.9029 C.ar    1  UNL1        0.0142
     10 C         140.6140  141.4123  157.7229 C.ar    1  UNL1       -0.0243
     11 C         141.4662  140.8756  156.6112 C.3     1  UNL1        0.0307
     12 C         137.4447  141.3003  163.3396 C.3     1  UNL1        0.0639
     13 C         138.2618  141.0918  164.5801 C.3     1  UNL1        0.0075
     14 C         139.2364  142.1431  165.0217 C.3     1  UNL1        0.0004
     15 C         140.0534  141.9346  166.2622 C.3     1  UNL1        0.0000
     16 C         139.8959  140.6749  167.0612 C.3     1  UNL1        0.0000
     17 C         138.9213  139.6236  166.6196 C.3     1  UNL1        0.0000
     18 C         138.1042  139.8321  165.3790 C.3     1  UNL1        0.0004
     19 C         139.2402  139.0741  161.7679 C.3     1  UNL1        0.1339
     20 C         140.2802  138.8418  162.8234 C.ar    1  UNL1        0.0005
     21 C         140.2641  137.5749  163.6263 C.ar    1  UNL1       -0.0015
     22 C         141.3041  137.3425  164.6819 C.ar    1  UNL1        0.0111
     23 C         142.3603  138.3771  164.9348 C.ar    1  UNL1        0.0577
     24 CL        143.4003  138.1448  165.9903 Cl      1  UNL1       -0.0822
     25 C         142.3765  139.6441  164.1319 C.ar    1  UNL1        0.0111
     26 C         141.3364  139.8765  163.0763 C.ar    1  UNL1       -0.0015
@<TRIPOS>BOND
     1     1     2    1
     2     2     3   ar
     3     3     4   ar
     4     4     5   ar
     5     5     6   ar
     6     6    12    1
     7    12    13    1
     8    13    14    1
     9    14    15    1
    10    15    16    1
    11    16    17    1
    12    17    18    1
    13     6     7   ar
    14     7    19    1
    15    19    20    1
    16    20    21   ar
    17    21    22   ar
    18    22    23   ar
    19    23    24    1
    20    23    25   ar
    21    25    26   ar
    22     7     8   ar
    23     8     9   ar
    24     9    10   ar
    25    10    11    1
    26    10     2   ar
    27     8     4   ar
    28    18    13    1
    29    26    20   ar
@<TRIPOS>MOLECULE
*****
 26 29 0 0 0
SMALL
GASTEIGER

@<TRIPOS>ATOM
      1 C         143.3207  139.5497  156.8658 C.3     1  UNL1        0.0307
      2 C         142.4005  139.4600  158.0471 C.ar    1  UNL1       -0.0242
      3 C         142.6805  138.4747  159.1428 C.ar    1  UNL1        0.0160
      4 C         141.7604  138.3850  160.3240 C.ar    1  UNL1        0.0980
      5 N         141.7798  137.5179  161.5479 N.ar    1  UNL1       -0.2310
      6 C         140.5916  137.8776  162.3897 C.ar    1  UNL1        0.1205
      7 N         139.8379  138.9671  161.6862 N.ar    1  UNL1       -0.3107
      8 C         140.5602  139.2806  160.4095 C.ar    1  UNL1        0.0785
      9 C         140.2802  140.2659  159.3137 C.ar    1  UNL1        0.0142
     10 C         141.2003  140.3556  158.1325 C.ar    1  UNL1       -0.0243
     11 C         140.9202  141.3410  157.0367 C.3     1  UNL1        0.0307
     12 C         140.2220  137.2570  163.7044 C.3     1  UNL1        0.0639
     13 C         139.9509  138.1279  164.8951 C.3     1  UNL1        0.0075
     14 C         141.0601  138.9348  165.5023 C.3     1  UNL1        0.0004
     15 C         140.7890  139.8057  166.6930 C.3     1  UNL1        0.0000
     16 C         139.4086  139.8699  167.2767 C.3     1  UNL1        0.0000
     17 C         138.2994  139.0630  166.6695 C.3     1  UNL1        0.0000
     18 C         138.5706  138.1920  165.4787 C.3     1  UNL1        0.0004
     19 C         138.5822  139.6271  162.1736 C.3     1  UNL1        0.1339
     20 C         138.6614  140.9035  162.9575 C.ar    1  UNL1        0.0005
     21 C         139.9983  141.4797  163.3193 C.ar    1  UNL1       -0.0015
     22 C         140.0776  142.7561  164.1032 C.ar    1  UNL1        0.0111
     23 C         138.8201  143.4563  164.5253 C.ar    1  UNL1        0.0577
     24 CL        138.8994  144.7327  165.3092 Cl      1  UNL1       -0.0822
     25 C         137.4832  142.8802  164.1636 C.ar    1  UNL1        0.0111
     26 C         137.4039  141.6037  163.3797 C.ar    1  UNL1       -0.0015
@<TRIPOS>BOND
     1     1     2    1
     2     2     3   ar
     3     3     4   ar
     4     4     5   ar
     5     5     6   ar
     6     6    12    1
     7    12    13    1
     8    13    14    1
     9    14    15    1
    10    15    16    1
    11    16    17    1
    12    17    18    1
    13     6     7   ar
    14     7    19    1
    15    19    20    1
    16    20    21   ar
    17    21    22   ar
    18    22    23   ar
    19    23    24    1
    20    23    25   ar
    21    25    26   ar
    22     7     8   ar
    23     8     9   ar
    24     9    10   ar
    25    10    11    1
    26    10     2   ar
    27     8     4   ar
    28    18    13    1
    29    26    20   ar
@<TRIPOS>MOLECULE
*****
 26 29 0 0 0
SMALL
GASTEIGER

@<TRIPOS>ATOM
      1 C         140.0992  140.9955  170.3274 C.3     1  UNL1        0.0307
      2 C         140.3412  140.3981  168.9729 C.ar    1  UNL1       -0.0242
      3 C         139.1828  139.9385  168.1381 C.ar    1  UNL1        0.0160
      4 C         139.4247  139.3411  166.7836 C.ar    1  UNL1        0.0980
      5 N         138.4887  138.8033  165.7421 N.ar    1  UNL1       -0.2310
      6 C         139.3106  138.3332  164.5787 C.ar    1  UNL1        0.1205
      7 N         140.7545  138.5804  164.9013 N.ar    1  UNL1       -0.3107
      8 C         140.8251  139.2033  166.2640 C.ar    1  UNL1        0.0785
      9 C         141.9834  139.6629  167.0987 C.ar    1  UNL1        0.0142
     10 C         141.7415  140.2603  168.4532 C.ar    1  UNL1       -0.0243
     11 C         142.8999  140.7199  169.2880 C.3     1  UNL1        0.0307
     12 C         138.7815  137.7229  163.3147 C.3     1  UNL1        0.0639
     13 C         138.7203  138.5378  162.0569 C.3     1  UNL1        0.0075
     14 C         137.9562  139.8284  162.0358 C.3     1  UNL1        0.0004
     15 C         137.8950  140.6433  160.7779 C.3     1  UNL1        0.0000
     16 C         138.5980  140.1675  159.5411 C.3     1  UNL1        0.0000
     17 C         139.3620  138.8769  159.5622 C.3     1  UNL1        0.0000
     18 C         139.4232  138.0620  160.8201 C.3     1  UNL1        0.0004
     19 C         141.9228  138.2608  164.0164 C.3     1  UNL1        0.1339
     20 C         142.6633  139.3659  163.3234 C.ar    1  UNL1        0.0005
     21 C         144.1182  139.5898  163.6117 C.ar    1  UNL1       -0.0015
     22 C         144.8588  140.6950  162.9187 C.ar    1  UNL1        0.0111
     23 C         144.1444  141.5763  161.9374 C.ar    1  UNL1        0.0577
     24 CL        144.8849  142.6814  161.2444 Cl      1  UNL1       -0.0822
     25 C         142.6895  141.3525  161.6491 C.ar    1  UNL1        0.0111
     26 C         141.9489  140.2473  162.3422 C.ar    1  UNL1       -0.0015
@<TRIPOS>BOND
     1     1     2    1
     2     2     3   ar
     3     3     4   ar
     4     4     5   ar
     5     5     6   ar
     6     6    12    1
     7    12    13    1
     8    13    14    1
     9    14    15    1
    10    15    16    1
    11    16    17    1
    12    17    18    1
    13     6     7   ar
    14     7    19    1
    15    19    20    1
    16    20    21   ar
    17    21    22   ar
    18    22    23   ar
    19    23    24    1
    20    23    25   ar
    21    25    26   ar
    22     7     8   ar
    23     8     9   ar
    24     9    10   ar
    25    10    11    1
    26    10     2   ar
    27     8     4   ar
    28    18    13    1
    29    26    20   ar
@<TRIPOS>MOLECULE
*****
 26 29 0 0 0
SMALL
GASTEIGER

@<TRIPOS>ATOM
      1 C         142.0421  140.7583  171.4317 C.3     1  UNL1        0.0307
      2 C         141.6653  140.9475  169.9922 C.ar    1  UNL1       -0.0242
      3 C         140.4193  140.3098  169.4531 C.ar    1  UNL1        0.0160
      4 C         140.0424  140.4991  168.0136 C.ar    1  UNL1        0.0980
      5 N         138.8826  139.9972  167.2054 N.ar    1  UNL1       -0.2310
      6 C         139.0351  140.5141  165.8055 C.ar    1  UNL1        0.1205
      7 N         140.2890  141.3353  165.7486 N.ar    1  UNL1       -0.3107
      8 C         140.9116  141.3260  167.1132 C.ar    1  UNL1        0.0785
      9 C         142.1576  141.9637  167.6524 C.ar    1  UNL1        0.0142
     10 C         142.5344  141.7744  169.0919 C.ar    1  UNL1       -0.0243
     11 C         143.7805  142.4122  169.6310 C.3     1  UNL1        0.0307
     12 C         138.0981  140.2551  164.6631 C.3     1  UNL1        0.0639
     13 C         138.5861  139.5347  163.4413 C.3     1  UNL1        0.0075
     14 C         138.0812  139.9305  162.0854 C.3     1  UNL1        0.0004
     15 C         138.5692  139.2100  160.8637 C.3     1  UNL1        0.0000
     16 C         139.5622  138.0937  160.9977 C.3     1  UNL1        0.0000
     17 C         140.0671  137.6980  162.3536 C.3     1  UNL1        0.0000
     18 C         139.5790  138.4185  163.5754 C.3     1  UNL1        0.0004
     19 C         140.8261  142.0417  164.5393 C.3     1  UNL1        0.1339
     20 C         141.6367  141.2868  163.5279 C.ar    1  UNL1        0.0005
     21 C         142.6764  140.3053  163.9815 C.ar    1  UNL1       -0.0015
     22 C         143.4871  139.5502  162.9702 C.ar    1  UNL1        0.0111
     23 C         143.2581  139.7767  161.5052 C.ar    1  UNL1        0.0577
     24 CL        144.0686  139.0218  160.4938 Cl      1  UNL1       -0.0822
     25 C         142.2184  140.7582  161.0515 C.ar    1  UNL1        0.0111
     26 C         141.4077  141.5133  162.0629 C.ar    1  UNL1       -0.0015
@<TRIPOS>BOND
     1     1     2    1
     2     2     3   ar
     3     3     4   ar
     4     4     5   ar
     5     5     6   ar
     6     6    12    1
     7    12    13    1
     8    13    14    1
     9    14    15    1
    10    15    16    1
    11    16    17    1
    12    17    18    1
    13     6     7   ar
    14     7    19    1
    15    19    20    1
    16    20    21   ar
    17    21    22   ar
    18    22    23   ar
    19    23    24    1
    20    23    25   ar
    21    25    26   ar
    22     7     8   ar
    23     8     9   ar
    24     9    10   ar
    25    10    11    1
    26    10     2   ar
    27     8     4   ar
    28    18    13    1
    29    26    20   ar
