@<TRIPOS>MOLECULE
*****
 29 32 0 0 0
SMALL
GASTEIGER

@<TRIPOS>ATOM
      1 N         137.6540  141.7199  163.4686 N.pl3   1  UNL1       -0.2150
      2 H         136.7135  141.4541  163.3497 H       1  UNL1        0.1737
      3 C         138.3977  141.3129  164.7062 C.ar    1  UNL1        0.0648
      4 C         139.3962  142.2472  165.3225 C.ar    1  UNL1        0.0155
      5 C         140.1398  141.8401  166.5599 C.ar    1  UNL1       -0.0029
      6 C         139.8849  140.4988  167.1810 C.ar    1  UNL1       -0.0214
      7 C         138.8864  139.5645  166.5647 C.ar    1  UNL1       -0.0029
      8 C         138.1428  139.9715  165.3273 C.ar    1  UNL1        0.0155
      9 C         140.6286  140.0918  168.4185 C.3     1  UNL1        0.0347
     10 C         141.9285  139.7971  167.7305 C.3     1  UNL1        0.0726
     11 N         142.9114  139.3463  168.7700 N.3     1  UNL1       -0.2972
     12 C         142.2190  139.3623  170.1005 C.3     1  UNL1        0.0689
     13 C         140.8082  139.8231  169.8833 C.3     1  UNL1        0.0211
     14 C         139.4842  140.3013  169.3653 C.3     1  UNL1        0.0072
     15 H         143.7109  139.9795  168.7881 H       1  UNL1        0.1233
     16 O         139.0800  141.3087  161.9530 O.2     1  UNL1       -0.1499
     17 S         138.3432  142.5318  162.4124 S.O2    1  UNL1        0.0736
     18 O         137.6064  143.7549  162.8718 O.2     1  UNL1       -0.1499
     19 C         139.0324  143.3438  161.3561 C.ar    1  UNL1        0.1254
     20 C         139.0478  142.8664  159.9341 C.ar    1  UNL1        0.0233
     21 C         139.7370  143.6783  158.8778 C.ar    1  UNL1        0.0386
     22 C         140.4108  144.9676  159.2435 C.ar    1  UNL1        0.1469
     23 C         140.3954  145.4449  160.6654 C.ar    1  UNL1        0.0386
     24 C         139.7062  144.6330  161.7217 C.ar    1  UNL1        0.0233
     25 O         141.1000  145.7795  158.1872 O.3     1  UNL1       -0.4045
     26 C         140.3560  146.1875  156.9503 C.3     1  UNL1        0.5753
     27 F         139.6119  146.5955  155.7134 F       1  UNL1       -0.1328
     28 F         141.2771  145.3453  156.1183 F       1  UNL1       -0.1328
     29 F         139.4349  147.0298  157.7822 F       1  UNL1       -0.1328
@<TRIPOS>BOND
     1    16    17    2
     2    17    18    2
     3    17     1    1
     4     1     3    1
     5     3     4   ar
     6     4     5   ar
     7     5     6   ar
     8     9     6    1
     9     9    10    1
    10    10    11    1
    11    11    12    1
    12    13    12    1
    13    13    14    1
    14     6     7   ar
    15     7     8   ar
    16    17    19    1
    17    19    20   ar
    18    20    21   ar
    19    21    22   ar
    20    22    25    1
    21    25    26    1
    22    26    27    1
    23    26    28    1
    24    26    29    1
    25    22    23   ar
    26    23    24   ar
    27     8     3   ar
    28    24    19   ar
    29    13     9    1
    30    14     9    1
    31     1     2    1
    32    11    15    1
@<TRIPOS>MOLECULE
*****
 29 32 0 0 0
SMALL
GASTEIGER

@<TRIPOS>ATOM
      1 N         137.7041  141.7974  163.2497 N.pl3   1  UNL1       -0.2150
      2 H         136.7610  141.5486  163.1161 H       1  UNL1        0.1737
      3 C         138.4202  141.3796  164.4999 C.ar    1  UNL1        0.0648
      4 C         138.1721  140.0223  165.0883 C.ar    1  UNL1        0.0155
      5 C         138.8881  139.6046  166.3383 C.ar    1  UNL1       -0.0029
      6 C         139.8522  140.5441  167.0000 C.ar    1  UNL1       -0.0214
      7 C         140.1003  141.9013  166.4116 C.ar    1  UNL1       -0.0029
      8 C         139.3843  142.3191  165.1615 C.ar    1  UNL1        0.0155
      9 C         140.5683  140.1262  168.2501 C.3     1  UNL1        0.0347
     10 C         141.8666  139.7854  167.5807 C.3     1  UNL1        0.0726
     11 N         142.8228  139.3146  168.6361 N.3     1  UNL1       -0.2972
     12 C         142.1154  139.3645  169.9579 C.3     1  UNL1        0.0689
     13 C         140.7221  139.8661  169.7194 C.3     1  UNL1        0.0211
     14 C         139.4197  140.3797  169.1810 C.3     1  UNL1        0.0072
     15 H         143.6410  139.9231  168.6582 H       1  UNL1        0.1233
     16 O         137.6201  143.8055  162.5711 O.2     1  UNL1       -0.1499
     17 S         138.4250  142.5944  162.2033 S.O2    1  UNL1        0.0736
     18 O         139.2299  141.3833  161.8354 O.2     1  UNL1       -0.1499
     19 C         139.1459  143.3913  161.1567 C.ar    1  UNL1        0.1254
     20 C         139.1239  142.9433  159.7254 C.ar    1  UNL1        0.0233
     21 C         139.8448  143.7402  158.6788 C.ar    1  UNL1        0.0386
     22 C         140.5877  144.9851  159.0637 C.ar    1  UNL1        0.1469
     23 C         140.6098  145.4332  160.4950 C.ar    1  UNL1        0.0386
     24 C         139.8889  144.6363  161.5416 C.ar    1  UNL1        0.0233
     25 O         141.3087  145.7821  158.0171 O.3     1  UNL1       -0.4045
     26 C         140.6094  146.1532  156.7430 C.3     1  UNL1        0.5753
     27 F         139.9101  146.5242  155.4689 F       1  UNL1       -0.1328
     28 F         139.6054  146.9470  157.5253 F       1  UNL1       -0.1328
     29 F         141.6133  145.3593  155.9608 F       1  UNL1       -0.1328
@<TRIPOS>BOND
     1    16    17    2
     2    17    18    2
     3    17     1    1
     4     1     3    1
     5     3     4   ar
     6     4     5   ar
     7     5     6   ar
     8     9     6    1
     9     9    10    1
    10    10    11    1
    11    11    12    1
    12    13    12    1
    13    13    14    1
    14     6     7   ar
    15     7     8   ar
    16    17    19    1
    17    19    20   ar
    18    20    21   ar
    19    21    22   ar
    20    22    25    1
    21    25    26    1
    22    26    27    1
    23    26    28    1
    24    26    29    1
    25    22    23   ar
    26    23    24   ar
    27     8     3   ar
    28    24    19   ar
    29    13     9    1
    30    14     9    1
    31     1     2    1
    32    11    15    1
@<TRIPOS>MOLECULE
*****
 29 32 0 0 0
SMALL
GASTEIGER

@<TRIPOS>ATOM
      1 N         139.0783  137.8023  164.1601 N.pl3   1  UNL1       -0.2150
      2 H         138.3162  137.1791  164.1687 H       1  UNL1        0.1737
      3 C         139.3938  138.6180  165.3788 C.ar    1  UNL1        0.0648
      4 C         138.3578  138.8003  166.4481 C.ar    1  UNL1        0.0155
      5 C         138.6733  139.6160  167.6667 C.ar    1  UNL1       -0.0029
      6 C         140.0248  140.2494  167.8161 C.ar    1  UNL1       -0.0214
      7 C         141.0608  140.0670  166.7468 C.ar    1  UNL1       -0.0029
      8 C         140.7453  139.2514  165.5282 C.ar    1  UNL1        0.0155
      9 C         140.3403  141.0651  169.0348 C.3     1  UNL1        0.0347
     10 C         140.2001  139.9401  170.0170 C.3     1  UNL1        0.0726
     11 N         140.4724  140.4849  171.3877 N.3     1  UNL1       -0.2972
     12 C         140.7810  141.9466  171.2527 C.3     1  UNL1        0.0689
     13 C         140.6993  142.3052  169.7985 C.3     1  UNL1        0.0211
     14 C         140.5465  142.3606  168.3074 C.3     1  UNL1        0.0072
     15 H         141.2688  139.9998  171.8011 H       1  UNL1        0.1233
     16 O         140.7676  136.7819  163.3824 O.2     1  UNL1       -0.1499
     17 S         139.9239  137.9361  162.9285 S.O2    1  UNL1        0.0736
     18 O         139.0803  139.0903  162.4746 O.2     1  UNL1       -0.1499
     19 C         140.7696  138.0700  161.6968 C.ar    1  UNL1        0.1254
     20 C         140.1463  138.5011  160.4024 C.ar    1  UNL1        0.0233
     21 C         140.9919  138.6349  159.1707 C.ar    1  UNL1        0.0386
     22 C         142.4608  138.3377  159.2335 C.ar    1  UNL1        0.1469
     23 C         143.0841  137.9066  160.5280 C.ar    1  UNL1        0.0386
     24 C         142.2385  137.7727  161.7596 C.ar    1  UNL1        0.0233
     25 O         143.3064  138.4716  158.0018 O.3     1  UNL1       -0.4045
     26 C         142.8963  137.7859  156.7323 C.3     1  UNL1        0.5753
     27 F         142.4861  137.1003  155.4628 F       1  UNL1       -0.1328
     28 F         142.7839  139.1169  156.0498 F       1  UNL1       -0.1328
     29 F         143.0086  136.4550  157.4148 F       1  UNL1       -0.1328
@<TRIPOS>BOND
     1    16    17    2
     2    17    18    2
     3    17     1    1
     4     1     3    1
     5     3     4   ar
     6     4     5   ar
     7     5     6   ar
     8     9     6    1
     9     9    10    1
    10    10    11    1
    11    11    12    1
    12    13    12    1
    13    13    14    1
    14     6     7   ar
    15     7     8   ar
    16    17    19    1
    17    19    20   ar
    18    20    21   ar
    19    21    22   ar
    20    22    25    1
    21    25    26    1
    22    26    27    1
    23    26    28    1
    24    26    29    1
    25    22    23   ar
    26    23    24   ar
    27     8     3   ar
    28    24    19   ar
    29    13     9    1
    30    14     9    1
    31     1     2    1
    32    11    15    1
@<TRIPOS>MOLECULE
*****
 29 32 0 0 0
SMALL
GASTEIGER

@<TRIPOS>ATOM
      1 N         138.4885  138.4502  163.3136 N.pl3   1  UNL1       -0.2150
      2 H         137.5996  138.0350  163.2327 H       1  UNL1        0.1737
      3 C         138.8691  139.1680  164.5746 C.ar    1  UNL1        0.0648
      4 C         139.7411  140.3868  164.5098 C.ar    1  UNL1        0.0155
      5 C         140.1216  141.1045  165.7708 C.ar    1  UNL1       -0.0029
      6 C         139.6301  140.6034  167.0965 C.ar    1  UNL1       -0.0214
      7 C         138.7582  139.3846  167.1612 C.ar    1  UNL1       -0.0029
      8 C         138.3777  138.6669  165.9003 C.ar    1  UNL1        0.0155
      9 C         140.0107  141.3212  168.3575 C.3     1  UNL1        0.0347
     10 C         139.4592  140.2903  169.2972 C.3     1  UNL1        0.0726
     11 N         139.7078  140.7611  170.6995 N.3     1  UNL1       -0.2972
     12 C         140.4130  142.0830  170.6264 C.3     1  UNL1        0.0689
     13 C         140.6002  142.4292  169.1790 C.3     1  UNL1        0.0211
     14 C         140.6418  142.5022  167.6814 C.3     1  UNL1        0.0072
     15 H         140.2902  140.0850  171.1935 H       1  UNL1        0.1233
     16 O         138.7383  139.4749  161.4731 O.2     1  UNL1       -0.1499
     17 S         139.4624  138.3651  162.1759 S.O2    1  UNL1        0.0736
     18 O         140.1865  137.2554  162.8788 O.2     1  UNL1       -0.1499
     19 C         140.4363  138.2800  161.0382 C.ar    1  UNL1        0.1254
     20 C         141.8666  137.9125  161.3013 C.ar    1  UNL1        0.0233
     21 C         142.8405  137.8273  160.1637 C.ar    1  UNL1        0.0386
     22 C         142.3842  138.1097  158.7630 C.ar    1  UNL1        0.1469
     23 C         140.9539  138.4773  158.5000 C.ar    1  UNL1        0.0386
     24 C         139.9800  138.5624  159.6376 C.ar    1  UNL1        0.0233
     25 O         143.3581  138.0246  157.6253 O.3     1  UNL1       -0.4045
     26 C         143.0608  137.1441  156.4479 C.3     1  UNL1        0.5753
     27 F         142.7636  136.2636  155.2704 F       1  UNL1       -0.1328
     28 F         143.0601  135.9429  157.3463 F       1  UNL1       -0.1328
     29 F         143.0615  138.3453  155.5495 F       1  UNL1       -0.1328
@<TRIPOS>BOND
     1    16    17    2
     2    17    18    2
     3    17     1    1
     4     1     3    1
     5     3     4   ar
     6     4     5   ar
     7     5     6   ar
     8     9     6    1
     9     9    10    1
    10    10    11    1
    11    11    12    1
    12    13    12    1
    13    13    14    1
    14     6     7   ar
    15     7     8   ar
    16    17    19    1
    17    19    20   ar
    18    20    21   ar
    19    21    22   ar
    20    22    25    1
    21    25    26    1
    22    26    27    1
    23    26    28    1
    24    26    29    1
    25    22    23   ar
    26    23    24   ar
    27     8     3   ar
    28    24    19   ar
    29    13     9    1
    30    14     9    1
    31     1     2    1
    32    11    15    1
@<TRIPOS>MOLECULE
*****
 29 32 0 0 0
SMALL
GASTEIGER

@<TRIPOS>ATOM
      1 N         141.0798  145.7299  162.5712 N.pl3   1  UNL1       -0.2150
      2 H         141.4905  146.6116  162.7236 H       1  UNL1        0.1737
      3 C         140.8649  144.7933  163.7231 C.ar    1  UNL1        0.0648
      4 C         139.5426  144.7656  164.4306 C.ar    1  UNL1        0.0155
      5 C         139.3278  143.8291  165.5824 C.ar    1  UNL1       -0.0029
      6 C         140.4353  142.9203  166.0268 C.ar    1  UNL1       -0.0214
      7 C         141.7577  142.9480  165.3193 C.ar    1  UNL1       -0.0029
      8 C         141.9725  143.8845  164.1675 C.ar    1  UNL1        0.0155
      9 C         140.2204  141.9838  167.1787 C.3     1  UNL1        0.0347
     10 C         139.6631  140.8559  166.3619 C.3     1  UNL1        0.0726
     11 N         139.3411  139.7245  167.2926 N.3     1  UNL1       -0.2972
     12 C         139.6994  140.1532  168.6846 C.3     1  UNL1        0.0689
     13 C         140.2428  141.5495  168.6143 C.3     1  UNL1        0.0211
     14 C         140.7328  142.9159  168.2364 C.3     1  UNL1        0.0072
     15 H         139.8822  138.8993  167.0345 H       1  UNL1        0.1233
     16 O         139.3121  145.9204  161.4143 O.2     1  UNL1       -0.1499
     17 S         140.6691  145.3230  161.1871 S.O2    1  UNL1        0.0736
     18 O         142.0261  144.7256  160.9600 O.2     1  UNL1       -0.1499
     19 C         140.2584  144.9161  159.8030 C.ar    1  UNL1        0.1254
     20 C         139.5952  143.5898  159.5769 C.ar    1  UNL1        0.0233
     21 C         139.1845  143.1829  158.1928 C.ar    1  UNL1        0.0386
     22 C         139.4370  144.1023  157.0349 C.ar    1  UNL1        0.1469
     23 C         140.1001  145.4286  157.2609 C.ar    1  UNL1        0.0386
     24 C         140.5108  145.8355  158.6450 C.ar    1  UNL1        0.0233
     25 O         139.0262  143.6954  155.6507 O.3     1  UNL1       -0.4045
     26 C         137.5797  143.4487  155.3397 C.3     1  UNL1        0.5753
     27 F         136.1332  143.2020  155.0286 F       1  UNL1       -0.1328
     28 F         137.8508  141.9763  155.2466 F       1  UNL1       -0.1328
     29 F         137.3086  144.9210  155.4327 F       1  UNL1       -0.1328
@<TRIPOS>BOND
     1    16    17    2
     2    17    18    2
     3    17     1    1
     4     1     3    1
     5     3     4   ar
     6     4     5   ar
     7     5     6   ar
     8     9     6    1
     9     9    10    1
    10    10    11    1
    11    11    12    1
    12    13    12    1
    13    13    14    1
    14     6     7   ar
    15     7     8   ar
    16    17    19    1
    17    19    20   ar
    18    20    21   ar
    19    21    22   ar
    20    22    25    1
    21    25    26    1
    22    26    27    1
    23    26    28    1
    24    26    29    1
    25    22    23   ar
    26    23    24   ar
    27     8     3   ar
    28    24    19   ar
    29    13     9    1
    30    14     9    1
    31     1     2    1
    32    11    15    1
@<TRIPOS>MOLECULE
*****
 29 32 0 0 0
SMALL
GASTEIGER

@<TRIPOS>ATOM
      1 N         137.6917  142.5173  162.8809 N.pl3   1  UNL1       -0.2150
      2 H         136.7131  142.4172  162.8421 H       1  UNL1        0.1737
      3 C         138.4463  142.9856  161.6720 C.ar    1  UNL1        0.0648
      4 C         139.3983  144.1394  161.7826 C.ar    1  UNL1        0.0155
      5 C         140.1528  144.6077  160.5737 C.ar    1  UNL1       -0.0029
      6 C         139.9552  143.9221  159.2543 C.ar    1  UNL1       -0.0214
      7 C         139.0032  142.7683  159.1437 C.ar    1  UNL1       -0.0029
      8 C         138.2487  142.3000  160.3525 C.ar    1  UNL1        0.0155
      9 C         140.7098  144.3904  158.0453 C.3     1  UNL1        0.0347
     10 C         141.4774  145.4705  158.7483 C.3     1  UNL1        0.0726
     11 N         142.3594  146.1441  157.7393 N.3     1  UNL1       -0.2972
     12 C         142.1369  145.4804  156.4127 C.3     1  UNL1        0.0689
     13 C         141.1174  144.3965  156.6018 C.3     1  UNL1        0.0211
     14 C         140.0999  143.4083  157.0896 C.3     1  UNL1        0.0072
     15 H         143.3368  146.0480  158.0149 H       1  UNL1        0.1233
     16 O         137.8792  143.4475  164.7781 O.2     1  UNL1       -0.1499
     17 S         138.4282  142.2014  164.1489 S.O2    1  UNL1        0.0736
     18 O         138.9772  140.9554  163.5196 O.2     1  UNL1       -0.1499
     19 C         139.1648  141.8856  165.4169 C.ar    1  UNL1        0.1254
     20 C         139.1756  140.4829  165.9484 C.ar    1  UNL1        0.0233
     21 C         139.9121  140.1670  167.2164 C.ar    1  UNL1        0.0386
     22 C         140.6378  141.2537  167.9528 C.ar    1  UNL1        0.1469
     23 C         140.6270  142.6564  167.4212 C.ar    1  UNL1        0.0386
     24 C         139.8905  142.9723  166.1533 C.ar    1  UNL1        0.0233
     25 O         141.3744  140.9379  169.2208 O.3     1  UNL1       -0.4045
     26 C         142.0549  139.6109  169.3821 C.3     1  UNL1        0.5753
     27 F         142.7354  138.2839  169.5435 F       1  UNL1       -0.1328
     28 F         140.9908  139.1828  170.3488 F       1  UNL1       -0.1328
     29 F         143.1189  140.0390  168.4154 F       1  UNL1       -0.1328
@<TRIPOS>BOND
     1    16    17    2
     2    17    18    2
     3    17     1    1
     4     1     3    1
     5     3     4   ar
     6     4     5   ar
     7     5     6   ar
     8     9     6    1
     9     9    10    1
    10    10    11    1
    11    11    12    1
    12    13    12    1
    13    13    14    1
    14     6     7   ar
    15     7     8   ar
    16    17    19    1
    17    19    20   ar
    18    20    21   ar
    19    21    22   ar
    20    22    25    1
    21    25    26    1
    22    26    27    1
    23    26    28    1
    24    26    29    1
    25    22    23   ar
    26    23    24   ar
    27     8     3   ar
    28    24    19   ar
    29    13     9    1
    30    14     9    1
    31     1     2    1
    32    11    15    1
@<TRIPOS>MOLECULE
*****
 29 32 0 0 0
SMALL
GASTEIGER

@<TRIPOS>ATOM
      1 N         137.9879  140.1778  163.7065 N.pl3   1  UNL1       -0.2150
      2 H         137.3182  139.4616  163.6191 H       1  UNL1        0.1737
      3 C         138.6328  140.4438  165.0345 C.ar    1  UNL1        0.0648
      4 C         138.4909  139.4505  166.1495 C.ar    1  UNL1        0.0155
      5 C         139.1358  139.7164  167.4774 C.ar    1  UNL1       -0.0029
      6 C         139.9225  140.9757  167.6903 C.ar    1  UNL1       -0.0214
      7 C         140.0644  141.9690  166.5753 C.ar    1  UNL1       -0.0029
      8 C         139.4195  141.7030  165.2474 C.ar    1  UNL1        0.0155
      9 C         140.5674  141.2416  169.0183 C.3     1  UNL1        0.0347
     10 C         139.8346  140.1676  169.7663 C.3     1  UNL1        0.0726
     11 N         140.2980  140.1973  171.1926 N.3     1  UNL1       -0.2972
     12 C         141.3173  141.2897  171.3261 C.3     1  UNL1        0.0689
     13 C         141.4838  141.9351  169.9823 C.3     1  UNL1        0.0211
     14 C         141.4350  142.3712  168.5480 C.3     1  UNL1        0.0072
     15 H         140.7173  139.3008  171.4391 H       1  UNL1        0.1233
     16 O         139.6045  140.1799  162.3331 O.2     1  UNL1       -0.1499
     17 S         138.3635  141.0032  162.5117 S.O2    1  UNL1        0.0736
     18 O         137.1224  141.8265  162.6903 O.2     1  UNL1       -0.1499
     19 C         138.7390  141.8287  161.3168 C.ar    1  UNL1        0.1254
     20 C         139.4538  143.1344  161.5019 C.ar    1  UNL1        0.0233
     21 C         139.8294  143.9598  160.3072 C.ar    1  UNL1        0.0386
     22 C         139.4901  143.4796  158.9272 C.ar    1  UNL1        0.1469
     23 C         138.7753  142.1739  158.7421 C.ar    1  UNL1        0.0386
     24 C         138.3998  141.3484  159.9369 C.ar    1  UNL1        0.0233
     25 O         139.8657  144.3050  157.7324 O.3     1  UNL1       -0.4045
     26 C         141.0050  145.2767  157.8202 C.3     1  UNL1        0.5753
     27 F         142.1444  146.2484  157.9080 F       1  UNL1       -0.1328
     28 F         141.9790  144.1360  157.8052 F       1  UNL1       -0.1328
     29 F         140.0310  146.4174  157.8351 F       1  UNL1       -0.1328
@<TRIPOS>BOND
     1    16    17    2
     2    17    18    2
     3    17     1    1
     4     1     3    1
     5     3     4   ar
     6     4     5   ar
     7     5     6   ar
     8     9     6    1
     9     9    10    1
    10    10    11    1
    11    11    12    1
    12    13    12    1
    13    13    14    1
    14     6     7   ar
    15     7     8   ar
    16    17    19    1
    17    19    20   ar
    18    20    21   ar
    19    21    22   ar
    20    22    25    1
    21    25    26    1
    22    26    27    1
    23    26    28    1
    24    26    29    1
    25    22    23   ar
    26    23    24   ar
    27     8     3   ar
    28    24    19   ar
    29    13     9    1
    30    14     9    1
    31     1     2    1
    32    11    15    1
@<TRIPOS>MOLECULE
*****
 29 32 0 0 0
SMALL
GASTEIGER

@<TRIPOS>ATOM
      1 N         137.8160  140.2065  163.8679 N.pl3   1  UNL1       -0.2150
      2 H         136.8334  140.2676  163.8696 H       1  UNL1        0.1737
      3 C         138.5397  139.7945  162.6203 C.ar    1  UNL1        0.0648
      4 C         139.5552  138.6918  162.6718 C.ar    1  UNL1        0.0155
      5 C         140.2789  138.2799  161.4242 C.ar    1  UNL1       -0.0029
      6 C         139.9871  138.9708  160.1251 C.ar    1  UNL1       -0.0214
      7 C         138.9716  140.0735  160.0736 C.ar    1  UNL1       -0.0029
      8 C         138.2479  140.4854  161.3212 C.ar    1  UNL1        0.0155
      9 C         140.7109  138.5588  158.8774 C.3     1  UNL1        0.0347
     10 C         142.0189  138.2580  159.5471 C.3     1  UNL1        0.0726
     11 N         142.9845  137.8012  158.4941 N.3     1  UNL1       -0.2972
     12 C         142.2732  137.8196  157.1736 C.3     1  UNL1        0.0689
     13 C         140.8680  138.2879  157.4105 C.3     1  UNL1        0.0211
     14 C         139.5541  138.7735  157.9469 C.3     1  UNL1        0.0072
     15 H         143.3022  136.8547  158.7029 H       1  UNL1        0.1233
     16 O         138.0367  139.2959  165.7710 O.2     1  UNL1       -0.1499
     17 S         138.5893  140.5253  165.1130 S.O2    1  UNL1        0.0736
     18 O         139.1419  141.7547  164.4550 O.2     1  UNL1       -0.1499
     19 C         139.3627  140.8442  166.3581 C.ar    1  UNL1        0.1254
     20 C         139.3283  139.9015  167.5244 C.ar    1  UNL1        0.0233
     21 C         140.1016  140.2203  168.7695 C.ar    1  UNL1        0.0386
     22 C         140.9094  141.4817  168.8483 C.ar    1  UNL1        0.1469
     23 C         140.9438  142.4244  167.6820 C.ar    1  UNL1        0.0386
     24 C         140.1705  142.1056  166.4369 C.ar    1  UNL1        0.0233
     25 O         141.6828  141.8006  170.0934 O.3     1  UNL1       -0.4045
     26 C         143.1275  142.1929  169.9991 C.3     1  UNL1        0.5753
     27 F         144.5722  142.5852  169.9048 F       1  UNL1       -0.1328
     28 F         142.7806  143.5797  170.4535 F       1  UNL1       -0.1328
     29 F         143.4744  140.8061  169.5447 F       1  UNL1       -0.1328
@<TRIPOS>BOND
     1    16    17    2
     2    17    18    2
     3    17     1    1
     4     1     3    1
     5     3     4   ar
     6     4     5   ar
     7     5     6   ar
     8     9     6    1
     9     9    10    1
    10    10    11    1
    11    11    12    1
    12    13    12    1
    13    13    14    1
    14     6     7   ar
    15     7     8   ar
    16    17    19    1
    17    19    20   ar
    18    20    21   ar
    19    21    22   ar
    20    22    25    1
    21    25    26    1
    22    26    27    1
    23    26    28    1
    24    26    29    1
    25    22    23   ar
    26    23    24   ar
    27     8     3   ar
    28    24    19   ar
    29    13     9    1
    30    14     9    1
    31     1     2    1
    32    11    15    1
@<TRIPOS>MOLECULE
*****
 29 32 0 0 0
SMALL
GASTEIGER

@<TRIPOS>ATOM
      1 N         138.8694  137.6620  164.2525 N.pl3   1  UNL1       -0.2150
      2 H         138.5570  136.7381  164.3869 H       1  UNL1        0.1737
      3 C         139.2341  138.5099  165.4349 C.ar    1  UNL1        0.0648
      4 C         140.5825  139.1636  165.5018 C.ar    1  UNL1        0.0155
      5 C         140.9471  140.0114  166.6842 C.ar    1  UNL1       -0.0029
      6 C         139.9634  140.2056  167.7998 C.ar    1  UNL1       -0.0214
      7 C         138.6150  139.5518  167.7330 C.ar    1  UNL1       -0.0029
      8 C         138.2504  138.7040  166.5505 C.ar    1  UNL1        0.0155
      9 C         140.3281  141.0535  168.9823 C.3     1  UNL1        0.0347
     10 C         140.1925  139.9639  170.0042 C.3     1  UNL1        0.0726
     11 N         140.5129  140.5469  171.3486 N.3     1  UNL1       -0.2972
     12 C         140.8465  141.9967  171.1575 C.3     1  UNL1        0.0689
     13 C         140.7323  142.3099  169.6951 C.3     1  UNL1        0.0211
     14 C         140.5399  142.3203  168.2075 C.3     1  UNL1        0.0072
     15 H         141.3105  140.0590  171.7563 H       1  UNL1        0.1233
     16 O         140.0737  137.2417  162.5576 O.2     1  UNL1       -0.1499
     17 S         138.9808  138.2217  162.8653 S.O2    1  UNL1        0.0736
     18 O         137.8878  139.2018  163.1731 O.2     1  UNL1       -0.1499
     19 C         139.0920  138.7816  161.4781 C.ar    1  UNL1        0.1254
     20 C         137.9822  139.6198  160.9164 C.ar    1  UNL1        0.0233
     21 C         138.0934  140.1797  159.5293 C.ar    1  UNL1        0.0386
     22 C         139.3145  139.9012  158.7039 C.ar    1  UNL1        0.1469
     23 C         140.4244  139.0629  159.2656 C.ar    1  UNL1        0.0386
     24 C         140.3131  138.5031  160.6527 C.ar    1  UNL1        0.0233
     25 O         139.4258  140.4610  157.3166 O.3     1  UNL1       -0.4045
     26 C         138.4463  140.0454  156.2594 C.3     1  UNL1        0.5753
     27 F         137.4668  139.6298  155.2021 F       1  UNL1       -0.1328
     28 F         139.1298  138.7148  156.1492 F       1  UNL1       -0.1328
     29 F         137.7628  141.3761  156.3695 F       1  UNL1       -0.1328
@<TRIPOS>BOND
     1    16    17    2
     2    17    18    2
     3    17     1    1
     4     1     3    1
     5     3     4   ar
     6     4     5   ar
     7     5     6   ar
     8     9     6    1
     9     9    10    1
    10    10    11    1
    11    11    12    1
    12    13    12    1
    13    13    14    1
    14     6     7   ar
    15     7     8   ar
    16    17    19    1
    17    19    20   ar
    18    20    21   ar
    19    21    22   ar
    20    22    25    1
    21    25    26    1
    22    26    27    1
    23    26    28    1
    24    26    29    1
    25    22    23   ar
    26    23    24   ar
    27     8     3   ar
    28    24    19   ar
    29    13     9    1
    30    14     9    1
    31     1     2    1
    32    11    15    1
