@<TRIPOS>MOLECULE
*****
 34 37 0 0 0
SMALL
GASTEIGER

@<TRIPOS>ATOM
      1 C         142.2855  139.2141  169.7043 C.ar    1  UNL1        0.0528
      2 C         140.9036  139.7102  170.0111 C.ar    1  UNL1        0.0150
      3 C         140.1252  140.4548  168.9674 C.ar    1  UNL1        0.0082
      4 C         140.7287  140.7034  167.6168 C.ar    1  UNL1        0.0827
      5 C         142.1106  140.2073  167.3100 C.ar    1  UNL1        0.1459
      6 F         142.7140  140.4559  165.9594 F       1  UNL1       -0.2040
      7 C         142.8890  139.4627  168.3537 C.ar    1  UNL1        0.0445
      8 C         139.9501  141.4481  166.5730 C.ar    1  UNL1        0.2534
      9 N         138.8838  140.8713  165.6898 N.ar    1  UNL1       -0.1057
     10 N         138.3759  141.9670  164.8001 N.ar    1  UNL1       -0.0923
     11 C         139.1284  143.2211  165.1336 C.ar    1  UNL1        0.3086
     12 O         140.1014  142.9004  166.2293 O.2     1  UNL1       -0.4048
     13 N         138.9409  144.5606  164.4851 N.pl3   1  UNL1       -0.2871
     14 H         138.2870  145.1983  164.8527 H       1  UNL1        0.1512
     15 C         139.7497  144.9287  163.2767 C.3     1  UNL1        0.0912
     16 C         141.1857  144.5065  163.1782 C.3     1  UNL1        0.0227
     17 C         142.2456  145.2765  163.9087 C.3     1  UNL1        0.0191
     18 C         143.6867  145.1189  163.5238 C.3     1  UNL1        0.0723
     19 N         144.2308  143.7606  163.1937 N.3     1  UNL1       -0.2685
     20 C         144.7869  142.8908  164.2819 C.3     1  UNL1        0.1046
     21 C         145.3311  141.5324  163.9519 C.3     1  UNL1        0.1595
     22 O         145.3190  141.0439  162.5337 O.3     1  UNL1       -0.3508
     23 C         144.7628  141.9138  161.4456 C.3     1  UNL1        0.1595
     24 C         144.2188  143.2721  161.7756 C.3     1  UNL1        0.1046
     25 O         144.0695  136.9382  168.9057 O.2     1  UNL1       -0.2698
     26 C         143.9560  137.3314  170.3488 C.2     1  UNL1        0.2495
     27 N         143.0640  138.4694  170.7481 N.am    1  UNL1       -0.2803
     28 H         142.9895  138.7275  171.6952 H       1  UNL1        0.1552
     29 C         144.7345  136.5867  171.3926 C.ar    1  UNL1        0.0537
     30 C         144.5467  135.1074  171.5550 C.ar    1  UNL1        0.0045
     31 C         145.3252  134.3628  172.5987 C.ar    1  UNL1        0.0001
     32 C         146.2914  135.0975  173.4800 C.ar    1  UNL1        0.0000
     33 C         146.4792  136.5767  173.3176 C.ar    1  UNL1        0.0001
     34 C         145.7007  137.3214  172.2739 C.ar    1  UNL1        0.0045
@<TRIPOS>BOND
     1    25    26    2
     2    26    27   am
     3    27     1    1
     4     1     2   ar
     5     2     3   ar
     6     3     4   ar
     7     4     8    1
     8     8     9   ar
     9     9    10   ar
    10    10    11   ar
    11    11    13    1
    12    13    15    1
    13    15    16    1
    14    16    17    1
    15    17    18    1
    16    18    19    1
    17    19    20    1
    18    20    21    1
    19    21    22    1
    20    22    23    1
    21    23    24    1
    22    11    12   ar
    23     4     5   ar
    24     5     6    1
    25     5     7   ar
    26    26    29    1
    27    29    30   ar
    28    30    31   ar
    29    31    32   ar
    30    32    33   ar
    31    33    34   ar
    32     7     1   ar
    33    34    29   ar
    34    12     8   ar
    35    24    19    1
    36    27    28    1
    37    13    14    1
@<TRIPOS>MOLECULE
*****
 34 37 0 0 0
SMALL
GASTEIGER

@<TRIPOS>ATOM
      1 C         142.7888  138.9060  159.6295 C.ar    1  UNL1        0.0528
      2 C         141.7791  138.7997  160.7336 C.ar    1  UNL1        0.0150
      3 C         141.5761  139.9478  161.6773 C.ar    1  UNL1        0.0082
      4 C         142.3829  141.2022  161.5169 C.ar    1  UNL1        0.0827
      5 C         143.3927  141.3084  160.4128 C.ar    1  UNL1        0.1459
      6 F         144.1995  142.5627  160.2524 F       1  UNL1       -0.2040
      7 C         143.5956  140.1603  159.4691 C.ar    1  UNL1        0.0445
      8 C         142.1800  142.3503  162.4607 C.ar    1  UNL1        0.2534
      9 N         143.2046  142.9083  163.4035 N.ar    1  UNL1       -0.1057
     10 N         142.5747  144.0448  164.1529 N.ar    1  UNL1       -0.0923
     11 C         141.1608  144.1892  163.6732 C.ar    1  UNL1        0.3086
     12 O         140.9169  143.1419  162.6274 O.2     1  UNL1       -0.4048
     13 N         140.1655  145.2029  164.1547 N.pl3   1  UNL1       -0.2871
     14 H         140.2882  146.1552  163.9370 H       1  UNL1        0.1512
     15 C         138.9834  144.7658  164.9681 C.3     1  UNL1        0.0912
     16 C         137.8360  144.0625  164.3056 C.3     1  UNL1        0.0227
     17 C         137.7085  142.5717  164.4111 C.3     1  UNL1        0.0191
     18 C         137.4072  141.7564  163.1887 C.3     1  UNL1        0.0723
     19 N         137.8885  140.3388  163.0951 N.3     1  UNL1       -0.2685
     20 C         137.7523  139.5841  161.8059 C.3     1  UNL1        0.1046
     21 C         138.2336  138.1664  161.7123 C.3     1  UNL1        0.1595
     22 O         138.8511  137.5035  162.9078 O.3     1  UNL1       -0.3508
     23 C         138.9873  138.2583  164.1969 C.3     1  UNL1        0.1595
     24 C         138.5060  139.6759  164.2905 C.3     1  UNL1        0.1046
     25 O         140.8388  138.4351  157.3988 O.2     1  UNL1       -0.2698
     26 C         142.0168  137.5224  157.5704 C.2     1  UNL1        0.2495
     27 N         142.9917  137.7578  158.6857 N.am    1  UNL1       -0.2803
     28 H         143.7649  137.1588  158.7983 H       1  UNL1        0.1552
     29 C         142.2197  136.3743  156.6266 C.ar    1  UNL1        0.0537
     30 C         143.4806  135.5644  156.6910 C.ar    1  UNL1        0.0045
     31 C         143.6835  134.4163  155.7472 C.ar    1  UNL1        0.0001
     32 C         142.6256  134.0781  154.7391 C.ar    1  UNL1        0.0000
     33 C         141.3647  134.8880  154.6747 C.ar    1  UNL1        0.0001
     34 C         141.1618  136.0361  155.6185 C.ar    1  UNL1        0.0045
@<TRIPOS>BOND
     1    25    26    2
     2    26    27   am
     3    27     1    1
     4     1     2   ar
     5     2     3   ar
     6     3     4   ar
     7     4     8    1
     8     8     9   ar
     9     9    10   ar
    10    10    11   ar
    11    11    13    1
    12    13    15    1
    13    15    16    1
    14    16    17    1
    15    17    18    1
    16    18    19    1
    17    19    20    1
    18    20    21    1
    19    21    22    1
    20    22    23    1
    21    23    24    1
    22    11    12   ar
    23     4     5   ar
    24     5     6    1
    25     5     7   ar
    26    26    29    1
    27    29    30   ar
    28    30    31   ar
    29    31    32   ar
    30    32    33   ar
    31    33    34   ar
    32     7     1   ar
    33    34    29   ar
    34    12     8   ar
    35    24    19    1
    36    27    28    1
    37    13    14    1
@<TRIPOS>MOLECULE
*****
 34 37 0 0 0
SMALL
GASTEIGER

@<TRIPOS>ATOM
      1 C         142.7661  137.8811  162.0383 C.ar    1  UNL1        0.0528
      2 C         141.5918  137.3934  162.8341 C.ar    1  UNL1        0.0150
      3 C         141.4729  137.7447  164.2875 C.ar    1  UNL1        0.0082
      4 C         142.5282  138.5837  164.9451 C.ar    1  UNL1        0.0827
      5 C         143.7024  139.0714  164.1494 C.ar    1  UNL1        0.1459
      6 F         144.7577  139.9103  164.8070 F       1  UNL1       -0.2040
      7 C         143.8213  138.7201  162.6960 C.ar    1  UNL1        0.0445
      8 C         142.4092  138.9349  166.3986 C.ar    1  UNL1        0.2534
      9 N         143.4084  138.6095  167.4690 N.ar    1  UNL1       -0.1057
     10 N         142.8870  139.1467  168.7688 N.ar    1  UNL1       -0.0923
     11 C         141.5654  139.8042  168.5017 C.ar    1  UNL1        0.3086
     12 O         141.2702  139.6733  167.0369 O.2     1  UNL1       -0.4048
     13 N         140.6924  140.4748  169.5206 N.pl3   1  UNL1       -0.2871
     14 H         140.4049  139.9823  170.3231 H       1  UNL1        0.1512
     15 C         140.2575  141.8959  169.3168 C.3     1  UNL1        0.0912
     16 C         140.8763  142.7207  168.2273 C.3     1  UNL1        0.0227
     17 C         140.0428  143.1768  167.0666 C.3     1  UNL1        0.0191
     18 C         140.5666  143.0405  165.6678 C.3     1  UNL1        0.0723
     19 N         139.8790  143.7469  164.5372 N.3     1  UNL1       -0.2685
     20 C         138.4305  143.4781  164.2553 C.3     1  UNL1        0.1046
     21 C         137.7427  144.1844  163.1247 C.3     1  UNL1        0.1595
     22 O         138.5035  145.1595  162.2760 O.3     1  UNL1       -0.3508
     23 C         139.9521  145.4283  162.5580 C.3     1  UNL1        0.1595
     24 C         140.6398  144.7219  163.6885 C.3     1  UNL1        0.1046
     25 O         141.3887  139.5631  159.9710 O.2     1  UNL1       -0.2698
     26 C         142.1964  138.3708  159.5512 C.2     1  UNL1        0.2495
     27 N         142.8850  137.5298  160.5849 N.am    1  UNL1       -0.2803
     28 H         143.4151  136.7473  160.3094 H       1  UNL1        0.1552
     29 C         142.3154  138.0195  158.0977 C.ar    1  UNL1        0.0537
     30 C         141.9174  139.0166  157.0502 C.ar    1  UNL1        0.0045
     31 C         142.0364  138.6653  155.5968 C.ar    1  UNL1        0.0001
     32 C         142.5533  137.3169  155.1910 C.ar    1  UNL1        0.0000
     33 C         142.9513  136.3199  156.2385 C.ar    1  UNL1        0.0001
     34 C         142.8323  136.6712  157.6919 C.ar    1  UNL1        0.0045
@<TRIPOS>BOND
     1    25    26    2
     2    26    27   am
     3    27     1    1
     4     1     2   ar
     5     2     3   ar
     6     3     4   ar
     7     4     8    1
     8     8     9   ar
     9     9    10   ar
    10    10    11   ar
    11    11    13    1
    12    13    15    1
    13    15    16    1
    14    16    17    1
    15    17    18    1
    16    18    19    1
    17    19    20    1
    18    20    21    1
    19    21    22    1
    20    22    23    1
    21    23    24    1
    22    11    12   ar
    23     4     5   ar
    24     5     6    1
    25     5     7   ar
    26    26    29    1
    27    29    30   ar
    28    30    31   ar
    29    31    32   ar
    30    32    33   ar
    31    33    34   ar
    32     7     1   ar
    33    34    29   ar
    34    12     8   ar
    35    24    19    1
    36    27    28    1
    37    13    14    1
@<TRIPOS>MOLECULE
*****
 34 37 0 0 0
SMALL
GASTEIGER

@<TRIPOS>ATOM
      1 C         142.2899  139.1639  169.6940 C.ar    1  UNL1        0.0528
      2 C         140.8939  139.6270  169.9882 C.ar    1  UNL1        0.0150
      3 C         140.1061  140.3497  168.9361 C.ar    1  UNL1        0.0082
      4 C         140.7142  140.6092  167.5897 C.ar    1  UNL1        0.0827
      5 C         142.1103  140.1461  167.2954 C.ar    1  UNL1        0.1459
      6 F         142.7184  140.4056  165.9490 F       1  UNL1       -0.2040
      7 C         142.8981  139.4235  168.3476 C.ar    1  UNL1        0.0445
      8 C         139.9263  141.3319  166.5375 C.ar    1  UNL1        0.2534
      9 N         139.9677  142.8058  166.2619 N.ar    1  UNL1       -0.1057
     10 N         139.0257  143.0924  165.1303 N.ar    1  UNL1       -0.0923
     11 C         138.4021  141.7955  164.7065 C.ar    1  UNL1        0.3086
     12 O         138.9588  140.7075  165.5762 O.2     1  UNL1       -0.4048
     13 N         137.3982  141.6180  163.6062 N.pl3   1  UNL1       -0.2871
     14 H         136.7092  142.3043  163.4530 H       1  UNL1        0.1512
     15 C         137.4440  140.3946  162.7394 C.3     1  UNL1        0.0912
     16 C         137.7226  140.5257  161.2713 C.3     1  UNL1        0.0227
     17 C         138.7310  139.6291  160.6164 C.3     1  UNL1        0.0191
     18 C         139.0142  138.2730  161.1913 C.3     1  UNL1        0.0723
     19 N         140.1005  138.1027  162.2116 N.3     1  UNL1       -0.2685
     20 C         139.7550  137.7018  163.6151 C.3     1  UNL1        0.1046
     21 C         140.8412  137.5315  164.6355 C.3     1  UNL1        0.1595
     22 O         142.2730  137.7622  164.2524 O.3     1  UNL1       -0.3508
     23 C         142.6185  138.1631  162.8488 C.3     1  UNL1        0.1595
     24 C         141.5323  138.3334  161.8285 C.3     1  UNL1        0.1046
     25 O         144.0724  136.8762  168.9265 O.2     1  UNL1       -0.2698
     26 C         143.9691  137.2974  170.3624 C.2     1  UNL1        0.2495
     27 N         143.0778  138.4413  170.7462 N.am    1  UNL1       -0.2803
     28 H         143.0100  138.7177  171.6886 H       1  UNL1        0.1552
     29 C         144.7570  136.5748  171.4146 C.ar    1  UNL1        0.0537
     30 C         144.5910  135.0946  171.5915 C.ar    1  UNL1        0.0045
     31 C         145.3789  134.3720  172.6436 C.ar    1  UNL1        0.0001
     32 C         146.3328  135.1296  173.5189 C.ar    1  UNL1        0.0000
     33 C         146.4988  136.6098  173.3420 C.ar    1  UNL1        0.0001
     34 C         145.7109  137.3324  172.2898 C.ar    1  UNL1        0.0045
@<TRIPOS>BOND
     1    25    26    2
     2    26    27   am
     3    27     1    1
     4     1     2   ar
     5     2     3   ar
     6     3     4   ar
     7     4     8    1
     8     8     9   ar
     9     9    10   ar
    10    10    11   ar
    11    11    13    1
    12    13    15    1
    13    15    16    1
    14    16    17    1
    15    17    18    1
    16    18    19    1
    17    19    20    1
    18    20    21    1
    19    21    22    1
    20    22    23    1
    21    23    24    1
    22    11    12   ar
    23     4     5   ar
    24     5     6    1
    25     5     7   ar
    26    26    29    1
    27    29    30   ar
    28    30    31   ar
    29    31    32   ar
    30    32    33   ar
    31    33    34   ar
    32     7     1   ar
    33    34    29   ar
    34    12     8   ar
    35    24    19    1
    36    27    28    1
    37    13    14    1
@<TRIPOS>MOLECULE
*****
 34 37 0 0 0
SMALL
GASTEIGER

@<TRIPOS>ATOM
      1 C         142.3369  139.0188  169.7875 C.ar    1  UNL1        0.0528
      2 C         142.8743  139.1679  168.3951 C.ar    1  UNL1        0.0150
      3 C         142.0563  139.8604  167.3456 C.ar    1  UNL1        0.0082
      4 C         140.7009  140.4037  167.6886 C.ar    1  UNL1        0.0827
      5 C         140.1634  140.2545  169.0810 C.ar    1  UNL1        0.1459
      6 F         138.8080  140.7978  169.4240 F       1  UNL1       -0.2040
      7 C         140.9814  139.5621  170.1305 C.ar    1  UNL1        0.0445
      8 C         139.8829  141.0961  166.6391 C.ar    1  UNL1        0.2534
      9 N         138.8038  140.4696  165.8066 N.ar    1  UNL1       -0.1057
     10 N         138.2543  141.5229  164.8908 N.ar    1  UNL1       -0.0923
     11 C         138.9939  142.8004  165.1574 C.ar    1  UNL1        0.3086
     12 O         140.0003  142.5367  166.2378 O.2     1  UNL1       -0.4048
     13 N         138.7668  144.1116  164.4650 N.pl3   1  UNL1       -0.2871
     14 H         139.1948  144.9295  164.8070 H       1  UNL1        0.1512
     15 C         137.8875  144.1765  163.2514 C.3     1  UNL1        0.0912
     16 C         138.1167  143.2332  162.1078 C.3     1  UNL1        0.0227
     17 C         139.3212  143.3984  161.2293 C.3     1  UNL1        0.0191
     18 C         140.5534  144.0662  161.7636 C.3     1  UNL1        0.0723
     19 N         141.4313  143.3465  162.7440 N.3     1  UNL1       -0.2685
     20 C         141.4757  141.8471  162.7510 C.3     1  UNL1        0.1046
     21 C         142.3537  141.1273  163.7313 C.3     1  UNL1        0.1595
     22 O         143.1873  141.9068  164.7047 O.3     1  UNL1       -0.3508
     23 C         143.1428  143.4061  164.6977 C.3     1  UNL1        0.1595
     24 C         142.2649  144.1259  163.7174 C.3     1  UNL1        0.1046
     25 O         144.1258  136.7330  169.0291 O.2     1  UNL1       -0.2698
     26 C         144.0493  137.1835  170.4578 C.2     1  UNL1        0.2495
     27 N         143.1549  138.3263  170.8370 N.am    1  UNL1       -0.2803
     28 H         143.1047  138.6219  171.7747 H       1  UNL1        0.1552
     29 C         144.8673  136.4910  171.5073 C.ar    1  UNL1        0.0537
     30 C         144.7091  135.0160  171.7294 C.ar    1  UNL1        0.0045
     31 C         145.5271  134.3236  172.7788 C.ar    1  UNL1        0.0001
     32 C         146.5032  135.1062  173.6063 C.ar    1  UNL1        0.0000
     33 C         146.6614  136.5812  173.3842 C.ar    1  UNL1        0.0001
     34 C         145.8435  137.2736  172.3347 C.ar    1  UNL1        0.0045
@<TRIPOS>BOND
     1    25    26    2
     2    26    27   am
     3    27     1    1
     4     1     2   ar
     5     2     3   ar
     6     3     4   ar
     7     4     8    1
     8     8     9   ar
     9     9    10   ar
    10    10    11   ar
    11    11    13    1
    12    13    15    1
    13    15    16    1
    14    16    17    1
    15    17    18    1
    16    18    19    1
    17    19    20    1
    18    20    21    1
    19    21    22    1
    20    22    23    1
    21    23    24    1
    22    11    12   ar
    23     4     5   ar
    24     5     6    1
    25     5     7   ar
    26    26    29    1
    27    29    30   ar
    28    30    31   ar
    29    31    32   ar
    30    32    33   ar
    31    33    34   ar
    32     7     1   ar
    33    34    29   ar
    34    12     8   ar
    35    24    19    1
    36    27    28    1
    37    13    14    1
@<TRIPOS>MOLECULE
*****
 34 37 0 0 0
SMALL
GASTEIGER

@<TRIPOS>ATOM
      1 C         138.5295  142.2111  161.3584 C.ar    1  UNL1        0.0528
      2 C         139.1472  140.8558  161.5356 C.ar    1  UNL1        0.0150
      3 C         139.1567  140.2069  162.8879 C.ar    1  UNL1        0.0082
      4 C         138.5483  140.9133  164.0630 C.ar    1  UNL1        0.0827
      5 C         137.9306  142.2686  163.8858 C.ar    1  UNL1        0.1459
      6 F         137.3222  142.9750  165.0610 F       1  UNL1       -0.2040
      7 C         137.9211  142.9175  162.5335 C.ar    1  UNL1        0.0445
      8 C         138.5578  140.2643  165.4154 C.ar    1  UNL1        0.2534
      9 N         137.7694  139.0533  165.8177 N.ar    1  UNL1       -0.1057
     10 N         138.0816  138.7529  167.2538 N.ar    1  UNL1       -0.0923
     11 C         139.0630  139.7783  167.7390 C.ar    1  UNL1        0.3086
     12 O         139.3573  140.7124  166.6028 O.2     1  UNL1       -0.4048
     13 N         139.6475  139.8560  169.1182 N.pl3   1  UNL1       -0.2871
     14 H         140.0586  139.0589  169.5243 H       1  UNL1        0.1512
     15 C         139.6056  141.1481  169.8789 C.3     1  UNL1        0.0912
     16 C         140.6740  142.1791  169.6655 C.3     1  UNL1        0.0227
     17 C         141.9817  141.7865  169.0444 C.3     1  UNL1        0.0191
     18 C         142.2294  142.0493  167.5886 C.3     1  UNL1        0.0723
     19 N         142.8461  140.9860  166.7288 N.3     1  UNL1       -0.2685
     20 C         143.5286  141.3607  165.4467 C.3     1  UNL1        0.1046
     21 C         144.1453  140.2976  164.5867 C.3     1  UNL1        0.1595
     22 O         144.0796  138.8597  165.0090 O.3     1  UNL1       -0.3508
     23 C         143.3971  138.4851  166.2912 C.3     1  UNL1        0.1595
     24 C         142.7804  139.5483  167.1510 C.3     1  UNL1        0.1046
     25 O         140.9462  143.7044  160.3942 O.2     1  UNL1       -0.2698
     26 C         139.7283  143.6067  159.5240 C.2     1  UNL1        0.2495
     27 N         138.5200  142.8601  160.0060 N.am    1  UNL1       -0.2803
     28 H         137.7207  142.7959  159.4348 H       1  UNL1        0.1552
     29 C         139.7189  144.2557  158.1716 C.ar    1  UNL1        0.0537
     30 C         140.3143  145.6204  157.9905 C.ar    1  UNL1        0.0045
     31 C         140.3048  146.2693  156.6382 C.ar    1  UNL1        0.0001
     32 C         139.6999  145.5535  155.4670 C.ar    1  UNL1        0.0000
     33 C         139.1045  144.1887  155.6481 C.ar    1  UNL1        0.0001
     34 C         139.1140  143.5398  157.0004 C.ar    1  UNL1        0.0045
@<TRIPOS>BOND
     1    25    26    2
     2    26    27   am
     3    27     1    1
     4     1     2   ar
     5     2     3   ar
     6     3     4   ar
     7     4     8    1
     8     8     9   ar
     9     9    10   ar
    10    10    11   ar
    11    11    13    1
    12    13    15    1
    13    15    16    1
    14    16    17    1
    15    17    18    1
    16    18    19    1
    17    19    20    1
    18    20    21    1
    19    21    22    1
    20    22    23    1
    21    23    24    1
    22    11    12   ar
    23     4     5   ar
    24     5     6    1
    25     5     7   ar
    26    26    29    1
    27    29    30   ar
    28    30    31   ar
    29    31    32   ar
    30    32    33   ar
    31    33    34   ar
    32     7     1   ar
    33    34    29   ar
    34    12     8   ar
    35    24    19    1
    36    27    28    1
    37    13    14    1
@<TRIPOS>MOLECULE
*****
 34 37 0 0 0
SMALL
GASTEIGER

@<TRIPOS>ATOM
      1 C         140.0119  143.6404  164.0302 C.ar    1  UNL1        0.0528
      2 C         140.6694  142.7034  163.0609 C.ar    1  UNL1        0.0150
      3 C         141.0151  143.1746  161.6794 C.ar    1  UNL1        0.0082
      4 C         140.7032  144.5827  161.2673 C.ar    1  UNL1        0.0827
      5 C         140.0457  145.5197  162.2366 C.ar    1  UNL1        0.1459
      6 F         139.7338  146.9278  161.8245 F       1  UNL1       -0.2040
      7 C         139.7000  145.0485  163.6181 C.ar    1  UNL1        0.0445
      8 C         141.0490  145.0538  159.8857 C.ar    1  UNL1        0.2534
      9 N         142.3529  144.8308  159.1787 N.ar    1  UNL1       -0.1057
     10 N         142.2613  145.4698  157.8247 N.ar    1  UNL1       -0.0923
     11 C         140.9007  146.0878  157.6950 C.ar    1  UNL1        0.3086
     12 O         140.1514  145.8307  158.9688 O.2     1  UNL1       -0.4048
     13 N         140.3806  146.8322  156.5010 N.pl3   1  UNL1       -0.2871
     14 H         140.4223  147.8155  156.4776 H       1  UNL1        0.1512
     15 C         139.7972  146.0784  155.3429 C.3     1  UNL1        0.0912
     16 C         138.3454  146.2363  155.0001 C.3     1  UNL1        0.0227
     17 C         137.4598  145.0289  154.9126 C.3     1  UNL1        0.0191
     18 C         137.9527  143.7848  154.2352 C.3     1  UNL1        0.0723
     19 N         137.5276  142.4375  154.7393 N.3     1  UNL1       -0.2685
     20 C         136.7327  142.3276  156.0067 C.3     1  UNL1        0.1046
     21 C         136.3075  140.9804  156.5109 C.3     1  UNL1        0.1595
     22 O         136.6771  139.7430  155.7478 O.3     1  UNL1       -0.3508
     23 C         137.4720  139.8530  154.4805 C.3     1  UNL1        0.1595
     24 C         137.8972  141.2002  153.9763 C.3     1  UNL1        0.1046
     25 O         142.1741  142.6673  165.8682 O.2     1  UNL1       -0.2698
     26 C         140.7472  142.6827  166.3307 C.2     1  UNL1        0.2495
     27 N         139.6662  143.1692  165.4117 N.am    1  UNL1       -0.2803
     28 H         138.7297  143.1794  165.7153 H       1  UNL1        0.1552
     29 C         140.4015  142.2116  167.7122 C.ar    1  UNL1        0.0537
     30 C         140.0147  140.7806  167.9418 C.ar    1  UNL1        0.0045
     31 C         139.6690  140.3096  169.3233 C.ar    1  UNL1        0.0001
     32 C         139.7101  141.2694  170.4752 C.ar    1  UNL1        0.0000
     33 C         140.0970  142.7004  170.2456 C.ar    1  UNL1        0.0001
     34 C         140.4427  143.1714  168.8642 C.ar    1  UNL1        0.0045
@<TRIPOS>BOND
     1    25    26    2
     2    26    27   am
     3    27     1    1
     4     1     2   ar
     5     2     3   ar
     6     3     4   ar
     7     4     8    1
     8     8     9   ar
     9     9    10   ar
    10    10    11   ar
    11    11    13    1
    12    13    15    1
    13    15    16    1
    14    16    17    1
    15    17    18    1
    16    18    19    1
    17    19    20    1
    18    20    21    1
    19    21    22    1
    20    22    23    1
    21    23    24    1
    22    11    12   ar
    23     4     5   ar
    24     5     6    1
    25     5     7   ar
    26    26    29    1
    27    29    30   ar
    28    30    31   ar
    29    31    32   ar
    30    32    33   ar
    31    33    34   ar
    32     7     1   ar
    33    34    29   ar
    34    12     8   ar
    35    24    19    1
    36    27    28    1
    37    13    14    1
@<TRIPOS>MOLECULE
*****
 34 37 0 0 0
SMALL
GASTEIGER

@<TRIPOS>ATOM
      1 C         139.0530  140.7685  163.9493 C.ar    1  UNL1        0.0528
      2 C         139.7823  141.5739  162.9152 C.ar    1  UNL1        0.0150
      3 C         139.7860  141.1282  161.4830 C.ar    1  UNL1        0.0082
      4 C         139.0605  139.8771  161.0849 C.ar    1  UNL1        0.0827
      5 C         138.3312  139.0718  162.1191 C.ar    1  UNL1        0.1459
      6 F         137.6057  137.8207  161.7210 F       1  UNL1       -0.2040
      7 C         138.3275  139.5175  163.5513 C.ar    1  UNL1        0.0445
      8 C         139.0643  139.4314  159.6526 C.ar    1  UNL1        0.2534
      9 N         138.3753  140.1214  158.5127 N.ar    1  UNL1       -0.1057
     10 N         138.6429  139.3340  157.2644 N.ar    1  UNL1       -0.0923
     11 C         139.4972  138.1573  157.6328 C.ar    1  UNL1        0.3086
     12 O         139.7576  138.2176  159.1088 O.2     1  UNL1       -0.4048
     13 N         140.0023  137.1051  156.6906 N.pl3   1  UNL1       -0.2871
     14 H         139.4186  136.3563  156.4302 H       1  UNL1        0.1512
     15 C         141.3968  137.1939  156.1451 C.3     1  UNL1        0.0912
     16 C         142.5724  137.0011  157.0566 C.3     1  UNL1        0.0227
     17 C         143.3594  135.7252  157.0059 C.3     1  UNL1        0.0191
     18 C         142.7267  134.4744  156.4720 C.3     1  UNL1        0.0723
     19 N         143.2888  133.1333  156.8402 N.3     1  UNL1       -0.2685
     20 C         142.5506  131.8824  156.4659 C.3     1  UNL1        0.1046
     21 C         143.1127  130.5412  156.8340 C.3     1  UNL1        0.1595
     22 O         144.4130  130.4511  157.5764 O.3     1  UNL1       -0.3508
     23 C         145.1511  131.7021  157.9506 C.3     1  UNL1        0.1595
     24 C         144.5890  133.0432  157.5825 C.3     1  UNL1        0.1046
     25 O         141.3646  140.0905  165.7374 O.2     1  UNL1       -0.2698
     26 C         140.2050  140.8752  166.2756 C.2     1  UNL1        0.2495
     27 N         139.0493  141.2142  165.3816 N.am    1  UNL1       -0.2803
     28 H         138.2882  141.7293  165.7349 H       1  UNL1        0.1552
     29 C         140.2013  141.3209  167.7079 C.ar    1  UNL1        0.0537
     30 C         140.5543  142.7372  168.0536 C.ar    1  UNL1        0.0045
     31 C         140.5505  143.1828  169.4859 C.ar    1  UNL1        0.0001
     32 C         140.1937  142.2122  170.5724 C.ar    1  UNL1        0.0000
     33 C         139.8406  140.7959  170.2267 C.ar    1  UNL1        0.0001
     34 C         139.8444  140.3503  168.7945 C.ar    1  UNL1        0.0045
@<TRIPOS>BOND
     1    25    26    2
     2    26    27   am
     3    27     1    1
     4     1     2   ar
     5     2     3   ar
     6     3     4   ar
     7     4     8    1
     8     8     9   ar
     9     9    10   ar
    10    10    11   ar
    11    11    13    1
    12    13    15    1
    13    15    16    1
    14    16    17    1
    15    17    18    1
    16    18    19    1
    17    19    20    1
    18    20    21    1
    19    21    22    1
    20    22    23    1
    21    23    24    1
    22    11    12   ar
    23     4     5   ar
    24     5     6    1
    25     5     7   ar
    26    26    29    1
    27    29    30   ar
    28    30    31   ar
    29    31    32   ar
    30    32    33   ar
    31    33    34   ar
    32     7     1   ar
    33    34    29   ar
    34    12     8   ar
    35    24    19    1
    36    27    28    1
    37    13    14    1
@<TRIPOS>MOLECULE
*****
 34 37 0 0 0
SMALL
GASTEIGER

@<TRIPOS>ATOM
      1 C         138.6819  138.9923  162.5795 C.ar    1  UNL1        0.0528
      2 C         139.0050  137.8470  163.4926 C.ar    1  UNL1        0.0150
      3 C         139.0024  138.0491  164.9789 C.ar    1  UNL1        0.0082
      4 C         138.6768  139.3964  165.5521 C.ar    1  UNL1        0.0827
      5 C         138.3537  140.5417  164.6390 C.ar    1  UNL1        0.1459
      6 F         138.0281  141.8891  165.2121 F       1  UNL1       -0.2040
      7 C         138.3563  140.3397  163.1527 C.ar    1  UNL1        0.0445
      8 C         138.6743  139.5985  167.0385 C.ar    1  UNL1        0.2534
      9 N         137.8388  138.8435  168.0294 N.ar    1  UNL1       -0.1057
     10 N         138.1549  139.3694  169.3982 N.ar    1  UNL1       -0.0923
     11 C         139.1858  140.4493  169.2532 C.ar    1  UNL1        0.3086
     12 O         139.5068  140.5909  167.7948 O.2     1  UNL1       -0.4048
     13 N         139.7897  141.2476  170.3704 N.pl3   1  UNL1       -0.2871
     14 H         139.2150  141.8041  170.9443 H       1  UNL1        0.1512
     15 C         141.2690  141.1978  170.6133 C.3     1  UNL1        0.0912
     16 C         142.1350  142.3534  170.2074 C.3     1  UNL1        0.0227
     17 C         142.9554  142.2719  168.9543 C.3     1  UNL1        0.0191
     18 C         142.8951  141.0427  168.0969 C.3     1  UNL1        0.0723
     19 N         142.4846  141.1510  166.6582 N.3     1  UNL1       -0.2685
     20 C         142.5936  139.9581  165.7555 C.3     1  UNL1        0.1046
     21 C         142.1832  140.0663  164.3167 C.3     1  UNL1        0.1595
     22 O         141.6637  141.3675  163.7808 O.3     1  UNL1       -0.3508
     23 C         141.5548  142.5603  164.6837 C.3     1  UNL1        0.1595
     24 C         141.9652  142.4521  166.1223 C.3     1  UNL1        0.1046
     25 O         141.0043  139.9497  160.9394 O.2     1  UNL1       -0.2698
     26 C         139.8456  139.2689  160.2731 C.2     1  UNL1        0.2495
     27 N         138.6844  138.7902  161.0931 N.am    1  UNL1       -0.2803
     28 H         137.9239  138.3434  160.6558 H       1  UNL1        0.1552
     29 C         139.8482  139.0669  158.7868 C.ar    1  UNL1        0.0537
     30 C         138.9272  139.8721  157.9188 C.ar    1  UNL1        0.0045
     31 C         138.9297  139.6701  156.4325 C.ar    1  UNL1        0.0001
     32 C         139.8533  138.6628  155.8142 C.ar    1  UNL1        0.0000
     33 C         140.7743  137.8575  156.6821 C.ar    1  UNL1        0.0001
     34 C         140.7717  138.0596  158.1684 C.ar    1  UNL1        0.0045
@<TRIPOS>BOND
     1    25    26    2
     2    26    27   am
     3    27     1    1
     4     1     2   ar
     5     2     3   ar
     6     3     4   ar
     7     4     8    1
     8     8     9   ar
     9     9    10   ar
    10    10    11   ar
    11    11    13    1
    12    13    15    1
    13    15    16    1
    14    16    17    1
    15    17    18    1
    16    18    19    1
    17    19    20    1
    18    20    21    1
    19    21    22    1
    20    22    23    1
    21    23    24    1
    22    11    12   ar
    23     4     5   ar
    24     5     6    1
    25     5     7   ar
    26    26    29    1
    27    29    30   ar
    28    30    31   ar
    29    31    32   ar
    30    32    33   ar
    31    33    34   ar
    32     7     1   ar
    33    34    29   ar
    34    12     8   ar
    35    24    19    1
    36    27    28    1
    37    13    14    1
