@<TRIPOS>MOLECULE
*****
 37 42 0 0 0
SMALL
GASTEIGER

@<TRIPOS>ATOM
      1 N         138.6336  140.7108  160.9404 N.3     1  UNL1       -0.2703
      2 C         139.2945  142.0418  160.7363 C.3     1  UNL1        0.0727
      3 C         139.2588  142.6979  159.3879 C.3     1  UNL1        0.0260
      4 C         138.5623  142.0230  158.2436 C.3     1  UNL1        0.0738
      5 C         137.9015  140.6920  158.4477 C.3     1  UNL1        0.0260
      6 C         137.9371  140.0359  159.7961 C.3     1  UNL1        0.0727
      7 C         137.9073  141.4717  157.0118 C.3     1  UNL1        0.0307
      8 C         138.1156  142.4536  155.8971 C.3     1  UNL1        0.1016
      9 N         138.8993  143.6117  156.4399 N.am    1  UNL1       -0.2278
     10 C         139.1754  143.3456  157.8901 C.2     1  UNL1        0.2307
     11 O         139.9317  144.2442  158.8230 O.2     1  UNL1       -0.2745
     12 C         139.3311  144.8232  155.6681 C.ar    1  UNL1        0.2358
     13 C         138.8505  146.2269  155.8891 C.ar    1  UNL1        0.0788
     14 C         139.5417  147.1150  154.8974 C.ar    1  UNL1        0.1244
     15 N         140.4494  146.2603  154.0634 N.ar    1  UNL1       -0.0754
     16 O         140.3192  144.8438  154.5398 O.2     1  UNL1       -0.3379
     17 C         139.3575  148.5976  154.7631 C.ar    1  UNL1        0.0210
     18 C         138.6360  149.3636  155.8321 C.ar    1  UNL1        0.0016
     19 C         138.4518  150.8462  155.6978 C.ar    1  UNL1        0.0000
     20 C         138.9891  151.5628  154.4945 C.ar    1  UNL1        0.0000
     21 C         139.7106  150.7967  153.4255 C.ar    1  UNL1        0.0000
     22 C         139.8948  149.3142  153.5598 C.ar    1  UNL1        0.0016
     23 C         138.6693  140.0546  162.2888 C.3     1  UNL1        0.1063
     24 C         137.9121  140.6558  163.4357 C.3     1  UNL1        0.1483
     25 O         136.6094  141.3573  163.1889 O.3     1  UNL1       -0.3786
     26 H         136.2541  141.6848  164.0299 H       1  UNL1        0.2108
     27 C         139.6875  142.8217  164.5113 C.3     1  UNL1        0.0306
     28 C         139.3453  141.6384  165.3672 C.ar    1  UNL1       -0.0238
     29 C         138.4576  140.5554  164.8294 C.ar    1  UNL1        0.0015
     30 C         138.1154  139.3721  165.6853 C.ar    1  UNL1       -0.0020
     31 C         138.6608  139.2717  167.0790 C.ar    1  UNL1        0.0060
     32 C         139.5485  140.3546  167.6167 C.ar    1  UNL1        0.0748
     33 C         139.8907  141.5380  166.7608 C.ar    1  UNL1        0.0233
     34 C         140.7834  142.4432  167.5569 C.3     1  UNL1        0.2352
     35 O         140.9929  141.8193  168.9048 O.3     1  UNL1       -0.4404
     36 C         140.2297  140.5285  168.9418 C.2     1  UNL1        0.3413
     37 O         140.1599  139.5784  170.1004 O.2     1  UNL1       -0.2449
@<TRIPOS>BOND
     1    27    28    1
     2    28    29   ar
     3    29    24    1
     4    24    25    1
     5    24    23    1
     6    23     1    1
     7     1     2    1
     8     2     3    1
     9     3     4    1
    10     4     5    1
    11     5     6    1
    12     4     7    1
    13     7     8    1
    14     8     9    1
    15     9    12    1
    16    12    13   ar
    17    13    14   ar
    18    14    17    1
    19    17    18   ar
    20    18    19   ar
    21    19    20   ar
    22    20    21   ar
    23    21    22   ar
    24    14    15   ar
    25    15    16   ar
    26     9    10   am
    27    10    11    2
    28    29    30   ar
    29    30    31   ar
    30    31    32   ar
    31    32    33   ar
    32    33    34    1
    33    34    35    1
    34    35    36    1
    35    36    37    2
    36    33    28   ar
    37     6     1    1
    38    16    12   ar
    39    36    32    1
    40    10     4    1
    41    22    17   ar
    42    25    26    1
@<TRIPOS>MOLECULE
*****
 37 42 0 0 0
SMALL
GASTEIGER

@<TRIPOS>ATOM
      1 N         138.5802  139.3340  165.4986 N.3     1  UNL1       -0.2703
      2 C         138.1300  140.5310  164.7148 C.3     1  UNL1        0.0727
      3 C         138.0947  140.4763  163.2163 C.3     1  UNL1        0.0260
      4 C         138.5094  139.2245  162.5015 C.3     1  UNL1        0.0738
      5 C         138.9596  138.0274  163.2852 C.3     1  UNL1        0.0260
      6 C         138.9950  138.0822  164.7838 C.3     1  UNL1        0.0727
      7 C         138.8927  138.0485  161.6529 C.3     1  UNL1        0.0307
      8 C         138.7047  138.4334  160.2152 C.3     1  UNL1        0.1016
      9 N         138.2053  139.8473  160.1754 N.am    1  UNL1       -0.2278
     10 C         138.0846  140.3362  161.5883 C.2     1  UNL1        0.2307
     11 O         137.6206  141.6977  162.0136 O.2     1  UNL1       -0.2745
     12 C         137.8832  140.6340  158.9397 C.ar    1  UNL1        0.2358
     13 C         138.4914  141.9479  158.5475 C.ar    1  UNL1        0.0788
     14 C         137.8804  142.3710  157.2445 C.ar    1  UNL1        0.1244
     15 N         136.8945  141.3186  156.8314 N.ar    1  UNL1       -0.0754
     16 O         136.8963  140.2451  157.8792 O.2     1  UNL1       -0.3379
     17 C         138.1992  143.6261  156.4875 C.ar    1  UNL1        0.0210
     18 C         137.2341  144.1519  155.4667 C.ar    1  UNL1        0.0016
     19 C         137.5530  145.4071  154.7097 C.ar    1  UNL1        0.0000
     20 C         138.8370  146.1363  154.9735 C.ar    1  UNL1        0.0000
     21 C         139.8021  145.6105  155.9944 C.ar    1  UNL1        0.0000
     22 C         139.4832  144.3554  156.7513 C.ar    1  UNL1        0.0016
     23 C         138.6156  139.3887  166.9972 C.3     1  UNL1        0.1063
     24 C         139.8729  139.8016  167.7032 C.3     1  UNL1        0.1483
     25 O         139.9158  139.8328  169.2022 O.3     1  UNL1       -0.3786
     26 H         140.7951  140.1193  169.4947 H       1  UNL1        0.2108
     27 C         140.3056  142.6610  166.9051 C.3     1  UNL1        0.0306
     28 C         141.3039  141.6131  166.5110 C.ar    1  UNL1       -0.0238
     29 C         141.0876  140.1834  166.9101 C.ar    1  UNL1        0.0015
     30 C         142.0859  139.1355  166.5160 C.ar    1  UNL1       -0.0020
     31 C         143.3004  139.5172  165.7229 C.ar    1  UNL1        0.0060
     32 C         143.5168  140.9468  165.3239 C.ar    1  UNL1        0.0748
     33 C         142.5185  141.9948  165.7180 C.ar    1  UNL1        0.0233
     34 C         142.9957  143.3132  165.1851 C.3     1  UNL1        0.2352
     35 O         144.2890  143.0802  164.4618 O.3     1  UNL1       -0.4404
     36 C         144.6110  141.6177  164.5475 C.2     1  UNL1        0.3413
     37 O         145.8157  140.9442  163.9601 O.2     1  UNL1       -0.2449
@<TRIPOS>BOND
     1    27    28    1
     2    28    29   ar
     3    29    24    1
     4    24    25    1
     5    24    23    1
     6    23     1    1
     7     1     2    1
     8     2     3    1
     9     3     4    1
    10     4     5    1
    11     5     6    1
    12     4     7    1
    13     7     8    1
    14     8     9    1
    15     9    12    1
    16    12    13   ar
    17    13    14   ar
    18    14    17    1
    19    17    18   ar
    20    18    19   ar
    21    19    20   ar
    22    20    21   ar
    23    21    22   ar
    24    14    15   ar
    25    15    16   ar
    26     9    10   am
    27    10    11    2
    28    29    30   ar
    29    30    31   ar
    30    31    32   ar
    31    32    33   ar
    32    33    34    1
    33    34    35    1
    34    35    36    1
    35    36    37    2
    36    33    28   ar
    37     6     1    1
    38    16    12   ar
    39    36    32    1
    40    10     4    1
    41    22    17   ar
    42    25    26    1
@<TRIPOS>MOLECULE
*****
 37 42 0 0 0
SMALL
GASTEIGER

@<TRIPOS>ATOM
      1 N         145.0051  141.5101  163.2311 N.3     1  UNL1       -0.2703
      2 C         144.7243  141.8160  161.7897 C.3     1  UNL1        0.0727
      3 C         144.1317  140.7628  160.9012 C.3     1  UNL1        0.0260
      4 C         143.8199  139.4037  161.4540 C.3     1  UNL1        0.0738
      5 C         144.1006  139.0978  162.8953 C.3     1  UNL1        0.0260
      6 C         144.6932  140.1510  163.7839 C.3     1  UNL1        0.0727
      7 C         143.4570  138.0069  161.8632 C.3     1  UNL1        0.0307
      8 C         142.8989  137.3022  160.6622 C.3     1  UNL1        0.1016
      9 N         142.9169  138.2635  159.5109 N.am    1  UNL1       -0.2278
     10 C         143.4861  139.5622  160.0002 C.2     1  UNL1        0.2307
     11 O         143.6863  140.8019  159.1798 O.2     1  UNL1       -0.2745
     12 C         142.4481  137.9765  158.1153 C.ar    1  UNL1        0.2358
     13 C         142.6033  136.6768  157.3829 C.ar    1  UNL1        0.0788
     14 C         141.9928  136.8358  156.0220 C.ar    1  UNL1        0.1244
     15 N         141.4602  138.2338  155.9133 N.ar    1  UNL1       -0.0754
     16 O         141.7416  138.9388  157.2071 O.2     1  UNL1       -0.3379
     17 C         141.9265  135.7818  154.9567 C.ar    1  UNL1        0.0210
     18 C         142.0846  134.3355  155.3217 C.ar    1  UNL1        0.0016
     19 C         142.0183  133.2815  154.2564 C.ar    1  UNL1        0.0000
     20 C         141.7938  133.6739  152.8262 C.ar    1  UNL1        0.0000
     21 C         141.6356  135.1202  152.4612 C.ar    1  UNL1        0.0000
     22 C         141.7020  136.1741  153.5265 C.ar    1  UNL1        0.0016
     23 C         145.5977  142.5633  164.1197 C.3     1  UNL1        0.1063
     24 C         144.7026  143.4340  164.9507 C.3     1  UNL1        0.1483
     25 O         145.2203  144.0502  166.2165 O.3     1  UNL1       -0.3786
     26 H         144.5195  144.5791  166.6288 H       1  UNL1        0.2108
     27 C         142.4578  141.8334  166.1334 C.3     1  UNL1        0.0306
     28 C         142.1673  142.8882  165.1073 C.ar    1  UNL1       -0.0238
     29 C         143.2897  143.6885  164.5159 C.ar    1  UNL1        0.0015
     30 C         142.9992  144.7433  163.4898 C.ar    1  UNL1       -0.0020
     31 C         141.5864  144.9979  163.0550 C.ar    1  UNL1        0.0060
     32 C         140.4640  144.1976  163.6464 C.ar    1  UNL1        0.0748
     33 C         140.7545  143.1428  164.6725 C.ar    1  UNL1        0.0233
     34 C         139.4521  142.5172  165.0756 C.3     1  UNL1        0.2352
     35 O         138.3568  143.1853  164.2986 O.3     1  UNL1       -0.4404
     36 C         138.9822  144.2239  163.4153 C.2     1  UNL1        0.3413
     37 O         138.2536  145.1297  162.4673 O.2     1  UNL1       -0.2449
@<TRIPOS>BOND
     1    27    28    1
     2    28    29   ar
     3    29    24    1
     4    24    25    1
     5    24    23    1
     6    23     1    1
     7     1     2    1
     8     2     3    1
     9     3     4    1
    10     4     5    1
    11     5     6    1
    12     4     7    1
    13     7     8    1
    14     8     9    1
    15     9    12    1
    16    12    13   ar
    17    13    14   ar
    18    14    17    1
    19    17    18   ar
    20    18    19   ar
    21    19    20   ar
    22    20    21   ar
    23    21    22   ar
    24    14    15   ar
    25    15    16   ar
    26     9    10   am
    27    10    11    2
    28    29    30   ar
    29    30    31   ar
    30    31    32   ar
    31    32    33   ar
    32    33    34    1
    33    34    35    1
    34    35    36    1
    35    36    37    2
    36    33    28   ar
    37     6     1    1
    38    16    12   ar
    39    36    32    1
    40    10     4    1
    41    22    17   ar
    42    25    26    1
@<TRIPOS>MOLECULE
*****
 37 42 0 0 0
SMALL
GASTEIGER

@<TRIPOS>ATOM
      1 N         144.5841  141.3168  162.8987 N.3     1  UNL1       -0.2703
      2 C         144.0123  139.9441  162.7025 C.3     1  UNL1        0.0727
      3 C         143.6276  139.4812  161.3285 C.3     1  UNL1        0.0260
      4 C         143.8148  140.3911  160.1508 C.3     1  UNL1        0.0738
      5 C         144.3867  141.7638  160.3470 C.3     1  UNL1        0.0260
      6 C         144.7714  142.2267  161.7209 C.3     1  UNL1        0.0727
      7 C         143.9433  141.1852  158.8847 C.3     1  UNL1        0.0307
      8 C         143.4420  140.3377  157.7531 C.3     1  UNL1        0.1016
      9 N         143.0037  139.0198  158.3198 N.am    1  UNL1       -0.2278
     10 C         143.2341  139.0528  159.8016 C.2     1  UNL1        0.2307
     11 O         142.9362  137.9425  160.7652 O.2     1  UNL1       -0.2745
     12 C         142.4349  137.8708  157.5414 C.ar    1  UNL1        0.2358
     13 C         143.1105  136.5552  157.2908 C.ar    1  UNL1        0.0788
     14 C         142.1838  135.7068  156.4714 C.ar    1  UNL1        0.1244
     15 N         140.9354  136.4980  156.2155 N.ar    1  UNL1       -0.0754
     16 O         141.0907  137.8355  156.8768 O.2     1  UNL1       -0.3379
     17 C         142.4573  134.3120  155.9920 C.ar    1  UNL1        0.0210
     18 C         141.3767  133.5288  155.3075 C.ar    1  UNL1        0.0016
     19 C         141.6502  132.1339  154.8281 C.ar    1  UNL1        0.0000
     20 C         143.0045  131.5225  155.0333 C.ar    1  UNL1        0.0000
     21 C         144.0852  132.3058  155.7178 C.ar    1  UNL1        0.0000
     22 C         143.8116  133.7006  156.1972 C.ar    1  UNL1        0.0016
     23 C         144.9688  141.7797  164.2727 C.3     1  UNL1        0.1063
     24 C         144.1913  142.8751  164.9401 C.3     1  UNL1        0.1483
     25 O         144.8144  143.6677  166.0508 O.3     1  UNL1       -0.3786
     26 H         144.1820  144.3307  166.3691 H       1  UNL1        0.2108
     27 C         143.6470  145.2734  163.2221 C.3     1  UNL1        0.0306
     28 C         142.5184  144.3771  163.6380 C.ar    1  UNL1       -0.0238
     29 C         142.7906  143.1779  164.4970 C.ar    1  UNL1        0.0015
     30 C         141.6620  142.2815  164.9128 C.ar    1  UNL1       -0.0020
     31 C         140.2614  142.5843  164.4697 C.ar    1  UNL1        0.0060
     32 C         139.9892  143.7835  163.6107 C.ar    1  UNL1        0.0748
     33 C         141.1178  144.6798  163.1948 C.ar    1  UNL1        0.0233
     34 C         140.5479  145.7815  162.3513 C.3     1  UNL1        0.2352
     35 O         139.0672  145.5661  162.2458 O.3     1  UNL1       -0.4404
     36 C         138.7220  144.3312  163.0242 C.2     1  UNL1        0.3413
     37 O         137.3502  143.7467  163.1874 O.2     1  UNL1       -0.2449
@<TRIPOS>BOND
     1    27    28    1
     2    28    29   ar
     3    29    24    1
     4    24    25    1
     5    24    23    1
     6    23     1    1
     7     1     2    1
     8     2     3    1
     9     3     4    1
    10     4     5    1
    11     5     6    1
    12     4     7    1
    13     7     8    1
    14     8     9    1
    15     9    12    1
    16    12    13   ar
    17    13    14   ar
    18    14    17    1
    19    17    18   ar
    20    18    19   ar
    21    19    20   ar
    22    20    21   ar
    23    21    22   ar
    24    14    15   ar
    25    15    16   ar
    26     9    10   am
    27    10    11    2
    28    29    30   ar
    29    30    31   ar
    30    31    32   ar
    31    32    33   ar
    32    33    34    1
    33    34    35    1
    34    35    36    1
    35    36    37    2
    36    33    28   ar
    37     6     1    1
    38    16    12   ar
    39    36    32    1
    40    10     4    1
    41    22    17   ar
    42    25    26    1
@<TRIPOS>MOLECULE
*****
 37 42 0 0 0
SMALL
GASTEIGER

@<TRIPOS>ATOM
      1 N         144.1907  140.6764  162.8257 N.3     1  UNL1       -0.2703
      2 C         143.6943  139.2848  162.5672 C.3     1  UNL1        0.0727
      3 C         143.3898  138.8454  161.1657 C.3     1  UNL1        0.0260
      4 C         143.5817  139.7977  160.0228 C.3     1  UNL1        0.0738
      5 C         144.0780  141.1894  160.2813 C.3     1  UNL1        0.0260
      6 C         144.3825  141.6287  161.6828 C.3     1  UNL1        0.0727
      7 C         143.7241  140.6344  158.7859 C.3     1  UNL1        0.0307
      8 C         143.3117  139.7983  157.6107 C.3     1  UNL1        0.1016
      9 N         142.9144  138.4449  158.1213 N.am    1  UNL1       -0.2278
     10 C         143.0812  138.4446  159.6120 C.2     1  UNL1        0.2307
     11 O         142.7975  137.2934  160.5307 O.2     1  UNL1       -0.2745
     12 C         142.4345  137.2941  157.2876 C.ar    1  UNL1        0.2358
     13 C         143.0736  135.9397  157.2031 C.ar    1  UNL1        0.0788
     14 C         142.2654  135.1040  156.2553 C.ar    1  UNL1        0.1244
     15 N         141.1266  135.9419  155.7540 N.ar    1  UNL1       -0.0754
     16 O         141.2313  137.2954  156.3920 O.2     1  UNL1       -0.3379
     17 C         142.5464  133.6803  155.8755 C.ar    1  UNL1        0.0210
     18 C         141.4340  132.8010  155.3865 C.ar    1  UNL1        0.0016
     19 C         141.7150  131.3773  155.0066 C.ar    1  UNL1        0.0000
     20 C         143.1085  130.8330  155.1158 C.ar    1  UNL1        0.0000
     21 C         144.2210  131.7125  155.6048 C.ar    1  UNL1        0.0000
     22 C         143.9399  133.1361  155.9847 C.ar    1  UNL1        0.0016
     23 C         144.4952  141.1158  164.2273 C.3     1  UNL1        0.1063
     24 C         143.4711  141.8800  165.0129 C.3     1  UNL1        0.1483
     25 O         143.3578  141.6768  166.4948 O.3     1  UNL1       -0.3786
     26 H         142.6523  142.2425  166.8457 H       1  UNL1        0.2108
     27 C         140.7381  141.0040  164.1393 C.3     1  UNL1        0.0306
     28 C         141.1938  142.4093  163.8799 C.ar    1  UNL1       -0.0238
     29 C         142.5603  142.8473  164.3167 C.ar    1  UNL1        0.0015
     30 C         143.0160  144.2527  164.0573 C.ar    1  UNL1       -0.0020
     31 C         142.1052  145.2201  163.3612 C.ar    1  UNL1        0.0060
     32 C         140.7387  144.7820  162.9244 C.ar    1  UNL1        0.0748
     33 C         140.2830  143.3767  163.1838 C.ar    1  UNL1        0.0233
     34 C         138.8917  143.2331  162.6418 C.3     1  UNL1        0.2352
     35 O         138.4876  144.5497  162.0475 O.3     1  UNL1       -0.4404
     36 C         139.6291  145.5070  162.2221 C.2     1  UNL1        0.3413
     37 O         139.6562  146.9380  161.7733 O.2     1  UNL1       -0.2449
@<TRIPOS>BOND
     1    27    28    1
     2    28    29   ar
     3    29    24    1
     4    24    25    1
     5    24    23    1
     6    23     1    1
     7     1     2    1
     8     2     3    1
     9     3     4    1
    10     4     5    1
    11     5     6    1
    12     4     7    1
    13     7     8    1
    14     8     9    1
    15     9    12    1
    16    12    13   ar
    17    13    14   ar
    18    14    17    1
    19    17    18   ar
    20    18    19   ar
    21    19    20   ar
    22    20    21   ar
    23    21    22   ar
    24    14    15   ar
    25    15    16   ar
    26     9    10   am
    27    10    11    2
    28    29    30   ar
    29    30    31   ar
    30    31    32   ar
    31    32    33   ar
    32    33    34    1
    33    34    35    1
    34    35    36    1
    35    36    37    2
    36    33    28   ar
    37     6     1    1
    38    16    12   ar
    39    36    32    1
    40    10     4    1
    41    22    17   ar
    42    25    26    1
@<TRIPOS>MOLECULE
*****
 37 42 0 0 0
SMALL
GASTEIGER

@<TRIPOS>ATOM
      1 N         139.8073  140.8391  163.3997 N.3     1  UNL1       -0.2703
      2 C         138.7518  141.4841  162.5513 C.3     1  UNL1        0.0727
      3 C         139.1418  142.2480  161.3208 C.3     1  UNL1        0.0260
      4 C         140.5874  142.3670  160.9386 C.3     1  UNL1        0.0738
      5 C         141.6430  141.7221  161.7870 C.3     1  UNL1        0.0260
      6 C         141.2530  140.9581  163.0175 C.3     1  UNL1        0.0727
      7 C         141.9850  142.5704  160.4331 C.3     1  UNL1        0.0307
      8 C         141.9097  143.3909  159.1795 C.3     1  UNL1        0.1016
      9 N         140.4655  143.6945  158.9104 N.am    1  UNL1       -0.2278
     10 C         139.6484  143.0618  159.9975 C.2     1  UNL1        0.2307
     11 O         138.1545  143.1145  160.1218 O.2     1  UNL1       -0.2745
     12 C         139.9323  144.4910  157.7567 C.ar    1  UNL1        0.2358
     13 C         140.1420  145.9584  157.5265 C.ar    1  UNL1        0.0788
     14 C         139.4350  146.3343  156.2582 C.ar    1  UNL1        0.1244
     15 N         138.7883  145.0994  155.7044 N.ar    1  UNL1       -0.0754
     16 O         139.0956  143.9602  156.6306 O.2     1  UNL1       -0.3379
     17 C         139.3837  147.7047  155.6502 C.ar    1  UNL1        0.0210
     18 C         140.1110  147.9842  154.3685 C.ar    1  UNL1        0.0016
     19 C         140.0596  149.3546  153.7605 C.ar    1  UNL1        0.0000
     20 C         139.2811  150.4454  154.4344 C.ar    1  UNL1        0.0000
     21 C         138.5538  150.1657  155.7162 C.ar    1  UNL1        0.0000
     22 C         138.6051  148.7954  156.3241 C.ar    1  UNL1        0.0016
     23 C         139.4173  140.0751  164.6302 C.3     1  UNL1        0.1063
     24 C         140.4720  139.6110  165.5905 C.3     1  UNL1        0.1483
     25 O         141.4312  138.5309  165.1865 O.3     1  UNL1       -0.3786
     26 H         142.0428  138.3515  165.9177 H       1  UNL1        0.2108
     27 C         142.8400  141.3072  166.3084 C.3     1  UNL1        0.0306
     28 C         141.7514  141.0749  167.3139 C.ar    1  UNL1       -0.0238
     29 C         140.5674  140.2269  166.9550 C.ar    1  UNL1        0.0015
     30 C         139.4788  139.9946  167.9605 C.ar    1  UNL1       -0.0020
     31 C         139.5742  140.6105  169.3248 C.ar    1  UNL1        0.0060
     32 C         140.7582  141.4586  169.6837 C.ar    1  UNL1        0.0748
     33 C         141.8468  141.6908  168.6783 C.ar    1  UNL1        0.0233
     34 C         142.8857  142.5664  169.3138 C.3     1  UNL1        0.2352
     35 O         142.4392  142.8754  170.7121 O.3     1  UNL1       -0.4404
     36 C         141.1243  142.1907  170.9407 C.2     1  UNL1        0.3413
     37 O         140.3172  142.2310  172.2044 O.2     1  UNL1       -0.2449
@<TRIPOS>BOND
     1    27    28    1
     2    28    29   ar
     3    29    24    1
     4    24    25    1
     5    24    23    1
     6    23     1    1
     7     1     2    1
     8     2     3    1
     9     3     4    1
    10     4     5    1
    11     5     6    1
    12     4     7    1
    13     7     8    1
    14     8     9    1
    15     9    12    1
    16    12    13   ar
    17    13    14   ar
    18    14    17    1
    19    17    18   ar
    20    18    19   ar
    21    19    20   ar
    22    20    21   ar
    23    21    22   ar
    24    14    15   ar
    25    15    16   ar
    26     9    10   am
    27    10    11    2
    28    29    30   ar
    29    30    31   ar
    30    31    32   ar
    31    32    33   ar
    32    33    34    1
    33    34    35    1
    34    35    36    1
    35    36    37    2
    36    33    28   ar
    37     6     1    1
    38    16    12   ar
    39    36    32    1
    40    10     4    1
    41    22    17   ar
    42    25    26    1
@<TRIPOS>MOLECULE
*****
 37 42 0 0 0
SMALL
GASTEIGER

@<TRIPOS>ATOM
      1 N         142.9469  138.4051  158.0415 N.3     1  UNL1       -0.2703
      2 C         142.5098  137.6308  159.2495 C.3     1  UNL1        0.0727
      3 C         142.7907  138.1630  160.6234 C.3     1  UNL1        0.0260
      4 C         143.5088  139.4695  160.7894 C.3     1  UNL1        0.0738
      5 C         143.9459  140.2437  159.5814 C.3     1  UNL1        0.0260
      6 C         143.6650  139.7115  158.2074 C.3     1  UNL1        0.0727
      7 C         144.2134  140.7542  161.1102 C.3     1  UNL1        0.0307
      8 C         144.2745  140.8891  162.6030 C.3     1  UNL1        0.1016
      9 N         143.6075  139.6877  163.2047 N.am    1  UNL1       -0.2278
     10 C         143.1343  138.8104  162.0838 C.2     1  UNL1        0.2307
     11 O         142.4132  137.5034  162.2314 O.2     1  UNL1       -0.2745
     12 C         143.4428  139.4122  164.6698 C.ar    1  UNL1        0.2358
     13 C         142.4716  140.0896  165.5906 C.ar    1  UNL1        0.0788
     14 C         142.6489  139.5069  166.9614 C.ar    1  UNL1        0.1244
     15 N         143.7295  138.4693  166.8878 N.ar    1  UNL1       -0.0754
     16 O         144.2202  138.4108  165.4715 O.2     1  UNL1       -0.3379
     17 C         141.8803  139.8939  168.1901 C.ar    1  UNL1        0.0210
     18 C         142.6033  140.1352  169.4819 C.ar    1  UNL1        0.0016
     19 C         141.8348  140.5222  170.7107 C.ar    1  UNL1        0.0000
     20 C         140.3432  140.6678  170.6474 C.ar    1  UNL1        0.0000
     21 C         139.6202  140.4264  169.3555 C.ar    1  UNL1        0.0000
     22 C         140.3887  140.0394  168.1269 C.ar    1  UNL1        0.0016
     23 C         142.6660  137.8729  156.6674 C.3     1  UNL1        0.1063
     24 C         143.6192  136.9074  156.0277 C.3     1  UNL1        0.1483
     25 O         144.9245  137.3974  155.4745 O.3     1  UNL1       -0.3786
     26 H         145.4175  136.6508  155.0996 H       1  UNL1        0.2108
     27 C         142.2410  135.8400  153.5861 C.3     1  UNL1        0.0306
     28 C         142.5780  134.9181  154.7205 C.ar    1  UNL1       -0.0238
     29 C         143.2671  135.4518  155.9412 C.ar    1  UNL1        0.0015
     30 C         143.6041  134.5300  157.0755 C.ar    1  UNL1       -0.0020
     31 C         143.2520  133.0745  156.9891 C.ar    1  UNL1        0.0060
     32 C         142.5629  132.5408  155.7683 C.ar    1  UNL1        0.0748
     33 C         142.2259  133.4626  154.6340 C.ar    1  UNL1        0.0233
     34 C         141.5501  132.6552  153.5657 C.3     1  UNL1        0.2352
     35 O         141.4694  131.2344  154.0397 O.3     1  UNL1       -0.4404
     36 C         142.0954  131.1637  155.4010 C.2     1  UNL1        0.3413
     37 O         142.2301  129.9321  156.2466 O.2     1  UNL1       -0.2449
@<TRIPOS>BOND
     1    27    28    1
     2    28    29   ar
     3    29    24    1
     4    24    25    1
     5    24    23    1
     6    23     1    1
     7     1     2    1
     8     2     3    1
     9     3     4    1
    10     4     5    1
    11     5     6    1
    12     4     7    1
    13     7     8    1
    14     8     9    1
    15     9    12    1
    16    12    13   ar
    17    13    14   ar
    18    14    17    1
    19    17    18   ar
    20    18    19   ar
    21    19    20   ar
    22    20    21   ar
    23    21    22   ar
    24    14    15   ar
    25    15    16   ar
    26     9    10   am
    27    10    11    2
    28    29    30   ar
    29    30    31   ar
    30    31    32   ar
    31    32    33   ar
    32    33    34    1
    33    34    35    1
    34    35    36    1
    35    36    37    2
    36    33    28   ar
    37     6     1    1
    38    16    12   ar
    39    36    32    1
    40    10     4    1
    41    22    17   ar
    42    25    26    1
@<TRIPOS>MOLECULE
*****
 37 42 0 0 0
SMALL
GASTEIGER

@<TRIPOS>ATOM
      1 N         143.6149  140.4743  163.4997 N.3     1  UNL1       -0.2703
      2 C         143.0154  139.1556  163.1107 C.3     1  UNL1        0.0727
      3 C         142.8887  138.7875  161.6621 C.3     1  UNL1        0.0260
      4 C         143.3616  139.7382  160.6026 C.3     1  UNL1        0.0738
      5 C         143.9612  141.0569  160.9916 C.3     1  UNL1        0.0260
      6 C         144.0878  141.4250  162.4402 C.3     1  UNL1        0.0727
      7 C         143.7881  140.5819  159.4379 C.3     1  UNL1        0.0307
      8 C         143.4763  139.8269  158.1797 C.3     1  UNL1        0.1016
      9 N         142.8571  138.5166  158.5669 N.am    1  UNL1       -0.2278
     10 C         142.7862  138.4618  160.0642 C.2     1  UNL1        0.2307
     11 O         142.2365  137.3294  160.8800 O.2     1  UNL1       -0.2745
     12 C         142.3907  137.4487  157.6225 C.ar    1  UNL1        0.2358
     13 C         143.0068  136.0917  157.4524 C.ar    1  UNL1        0.0788
     14 C         142.2232  135.3545  156.4071 C.ar    1  UNL1        0.1244
     15 N         141.1228  136.2559  155.9311 N.ar    1  UNL1       -0.0754
     16 O         141.2264  137.5502  156.6823 O.2     1  UNL1       -0.3379
     17 C         142.4927  133.9606  155.9228 C.ar    1  UNL1        0.0210
     18 C         141.3859  133.1507  155.3154 C.ar    1  UNL1        0.0016
     19 C         141.6554  131.7567  154.8311 C.ar    1  UNL1        0.0000
     20 C         143.0316  131.1729  154.9542 C.ar    1  UNL1        0.0000
     21 C         144.1384  131.9830  155.5616 C.ar    1  UNL1        0.0000
     22 C         143.8689  133.3768  156.0459 C.ar    1  UNL1        0.0016
     23 C         143.7416  140.8424  164.9484 C.3     1  UNL1        0.1063
     24 C         142.7999  141.8409  165.5536 C.3     1  UNL1        0.1483
     25 O         142.8220  143.2680  165.0924 O.3     1  UNL1       -0.3786
     26 H         142.1560  143.7762  165.5814 H       1  UNL1        0.2108
     27 C         143.4269  142.3642  168.4403 C.3     1  UNL1        0.0306
     28 C         142.1496  141.6739  168.0635 C.ar    1  UNL1       -0.0238
     29 C         141.8361  141.4122  166.6201 C.ar    1  UNL1        0.0015
     30 C         140.5589  140.7218  166.2433 C.ar    1  UNL1       -0.0020
     31 C         139.5951  140.2931  167.3097 C.ar    1  UNL1        0.0060
     32 C         139.9086  140.5548  168.7530 C.ar    1  UNL1        0.0748
     33 C         141.1859  141.2452  169.1299 C.ar    1  UNL1        0.0233
     34 C         141.2235  141.3668  170.6245 C.3     1  UNL1        0.2352
     35 O         139.9695  140.7516  171.1714 O.3     1  UNL1       -0.4404
     36 C         139.1569  140.2497  170.0147 C.2     1  UNL1        0.3413
     37 O         137.8261  139.5633  170.1040 O.2     1  UNL1       -0.2449
@<TRIPOS>BOND
     1    27    28    1
     2    28    29   ar
     3    29    24    1
     4    24    25    1
     5    24    23    1
     6    23     1    1
     7     1     2    1
     8     2     3    1
     9     3     4    1
    10     4     5    1
    11     5     6    1
    12     4     7    1
    13     7     8    1
    14     8     9    1
    15     9    12    1
    16    12    13   ar
    17    13    14   ar
    18    14    17    1
    19    17    18   ar
    20    18    19   ar
    21    19    20   ar
    22    20    21   ar
    23    21    22   ar
    24    14    15   ar
    25    15    16   ar
    26     9    10   am
    27    10    11    2
    28    29    30   ar
    29    30    31   ar
    30    31    32   ar
    31    32    33   ar
    32    33    34    1
    33    34    35    1
    34    35    36    1
    35    36    37    2
    36    33    28   ar
    37     6     1    1
    38    16    12   ar
    39    36    32    1
    40    10     4    1
    41    22    17   ar
    42    25    26    1
@<TRIPOS>MOLECULE
*****
 37 42 0 0 0
SMALL
GASTEIGER

@<TRIPOS>ATOM
      1 N         141.6607  137.8946  157.4539 N.3     1  UNL1       -0.2703
      2 C         142.5866  137.9653  158.6318 C.3     1  UNL1        0.0727
      3 C         142.0448  138.2851  159.9935 C.3     1  UNL1        0.0260
      4 C         140.5771  138.5341  160.1772 C.3     1  UNL1        0.0738
      5 C         139.6512  138.4634  158.9993 C.3     1  UNL1        0.0260
      6 C         140.1930  138.1437  157.6376 C.3     1  UNL1        0.0727
      7 C         139.1406  138.8054  160.5132 C.3     1  UNL1        0.0307
      8 C         139.0523  139.0777  161.9857 C.3     1  UNL1        0.1016
      9 N         140.4344  138.9747  162.5597 N.am    1  UNL1       -0.2278
     10 C         141.3767  138.6388  161.4421 C.2     1  UNL1        0.2307
     11 O         142.8584  138.4420  161.5672 O.2     1  UNL1       -0.2745
     12 C         140.8084  139.1728  163.9987 C.ar    1  UNL1        0.2358
     13 C         140.1240  140.0890  164.9694 C.ar    1  UNL1        0.0788
     14 C         140.8251  139.9720  166.2903 C.ar    1  UNL1        0.1244
     15 N         141.9427  138.9835  166.1361 N.ar    1  UNL1       -0.0754
     16 O         141.9323  138.4896  164.7197 O.2     1  UNL1       -0.3379
     17 C         140.4707  140.7134  167.5453 C.ar    1  UNL1        0.0210
     18 C         140.9318  142.1279  167.7363 C.ar    1  UNL1        0.0016
     19 C         140.5774  142.8693  168.9913 C.ar    1  UNL1        0.0000
     20 C         139.7621  142.1960  170.0552 C.ar    1  UNL1        0.0000
     21 C         139.3011  140.7814  169.8642 C.ar    1  UNL1        0.0000
     22 C         139.6554  140.0401  168.6092 C.ar    1  UNL1        0.0016
     23 C         142.2025  137.5748  156.0921 C.3     1  UNL1        0.1063
     24 C         143.3903  136.6698  155.9511 C.3     1  UNL1        0.1483
     25 O         144.7558  137.2524  155.7369 O.3     1  UNL1       -0.3786
     26 H         145.4058  136.5357  155.6668 H       1  UNL1        0.2108
     27 C         142.2797  135.1744  153.5994 C.3     1  UNL1        0.0306
     28 C         142.6573  134.4345  154.8483 C.ar    1  UNL1       -0.0238
     29 C         143.2126  135.1821  156.0241 C.ar    1  UNL1        0.0015
     30 C         143.5902  134.4422  157.2731 C.ar    1  UNL1       -0.0020
     31 C         143.4125  132.9545  157.3462 C.ar    1  UNL1        0.0060
     32 C         142.8573  132.2069  156.1704 C.ar    1  UNL1        0.0748
     33 C         142.4796  132.9468  154.9214 C.ar    1  UNL1        0.0233
     34 C         141.9605  131.9481  153.9300 C.3     1  UNL1        0.2352
     35 O         142.0172  130.5909  154.5661 O.3     1  UNL1       -0.4404
     36 C         142.5715  130.7508  155.9508 C.2     1  UNL1        0.3413
     37 O         142.7998  129.6483  156.9419 O.2     1  UNL1       -0.2449
@<TRIPOS>BOND
     1    27    28    1
     2    28    29   ar
     3    29    24    1
     4    24    25    1
     5    24    23    1
     6    23     1    1
     7     1     2    1
     8     2     3    1
     9     3     4    1
    10     4     5    1
    11     5     6    1
    12     4     7    1
    13     7     8    1
    14     8     9    1
    15     9    12    1
    16    12    13   ar
    17    13    14   ar
    18    14    17    1
    19    17    18   ar
    20    18    19   ar
    21    19    20   ar
    22    20    21   ar
    23    21    22   ar
    24    14    15   ar
    25    15    16   ar
    26     9    10   am
    27    10    11    2
    28    29    30   ar
    29    30    31   ar
    30    31    32   ar
    31    32    33   ar
    32    33    34    1
    33    34    35    1
    34    35    36    1
    35    36    37    2
    36    33    28   ar
    37     6     1    1
    38    16    12   ar
    39    36    32    1
    40    10     4    1
    41    22    17   ar
    42    25    26    1
