@<TRIPOS>MOLECULE
*****
 33 35 0 0 0
SMALL
GASTEIGER

@<TRIPOS>ATOM
      1 C         142.1038  139.1470  164.5034 C.3     1  UNL1        0.0690
      2 C         141.0297  138.1128  164.6671 C.3     1  UNL1        0.0485
      3 C         140.7756  137.1162  163.5753 C.3     1  UNL1        0.1436
      4 O         141.5956  137.1537  162.3198 O.3     1  UNL1       -0.3537
      5 C         142.6696  138.1879  162.1561 C.3     1  UNL1        0.1436
      6 C         142.9237  139.1846  163.2479 C.3     1  UNL1        0.0485
      7 N         141.5955  139.5128  165.8665 N.3     1  UNL1       -0.2710
      8 C         142.5490  139.6151  167.0200 C.3     1  UNL1        0.0896
      9 C         142.0407  139.9809  168.3830 C.3     1  UNL1        0.0897
     10 N         140.5789  140.2444  168.5925 N.3     1  UNL1       -0.2702
     11 C         139.6255  140.1421  167.4391 C.3     1  UNL1        0.0897
     12 C         140.1338  139.7763  166.0761 C.3     1  UNL1        0.0896
     13 C         140.0707  140.6102  169.9556 C.3     1  UNL1        0.0748
     14 C         139.6881  142.0287  170.2576 C.3     1  UNL1        0.0494
     15 C         140.4440  143.1601  169.6263 C.3     1  UNL1        0.1437
     16 O         141.5912  143.7946  170.3551 O.3     1  UNL1       -0.3511
     17 C         142.8991  143.0694  170.4713 C.3     1  UNL1        0.1741
     18 C         143.0013  140.3083  164.8132 C.3     1  UNL1        0.1143
     19 C         144.0722  142.4171  163.7380 C.2     1  UNL1        0.2304
     20 O         145.4269  141.9609  164.1926 O.2     1  UNL1       -0.2745
     21 N         142.8594  141.5908  164.0483 N.am    1  UNL1       -0.2425
     22 C         141.5047  142.0470  163.5937 C.ar    1  UNL1        0.1373
     23 C         140.9887  141.6375  162.2460 C.ar    1  UNL1        0.0347
     24 C         139.6339  142.0937  161.7914 C.ar    1  UNL1        0.0044
     25 C         138.7953  142.9593  162.6845 C.ar    1  UNL1        0.0232
     26 C         139.3114  143.3686  164.0320 C.ar    1  UNL1        0.1540
     27 N         140.6660  142.9125  164.4867 N.ar    1  UNL1       -0.2263
     28 C         138.4727  144.2342  164.9251 C.3     1  UNL1        0.4349
     29 F         137.6340  145.0998  165.8181 F       1  UNL1       -0.1644
     30 F         137.3532  143.2398  164.8375 F       1  UNL1       -0.1644
     31 F         139.5922  145.2287  165.0127 F       1  UNL1       -0.1644
     32 C         143.7012  144.9884  163.7056 C.3     1  UNL1        0.0101
     33 C         143.9304  143.6996  162.9731 C.3     1  UNL1        0.0857
@<TRIPOS>BOND
     1    32    33    1
     2    33    19    1
     3    19    20    2
     4    19    21   am
     5    21    18    1
     6    18     1    1
     7     1     7    1
     8     7     8    1
     9     8     9    1
    10     9    10    1
    11    10    13    1
    12    13    14    1
    13    14    15    1
    14    15    16    1
    15    16    17    1
    16    10    11    1
    17    11    12    1
    18     1     2    1
    19     2     3    1
    20     3     4    1
    21     4     5    1
    22     5     6    1
    23    21    22    1
    24    22    23   ar
    25    23    24   ar
    26    24    25   ar
    27    25    26   ar
    28    26    28    1
    29    28    29    1
    30    28    30    1
    31    28    31    1
    32    26    27   ar
    33     6     1    1
    34    27    22   ar
    35    12     7    1
@<TRIPOS>MOLECULE
*****
 33 35 0 0 0
SMALL
GASTEIGER

@<TRIPOS>ATOM
      1 C         143.1251  142.0117  164.4165 C.3     1  UNL1        0.0690
      2 C         144.3285  141.1176  164.4641 C.3     1  UNL1        0.0485
      3 C         145.2503  141.0372  163.2834 C.3     1  UNL1        0.1436
      4 O         144.9685  141.8509  162.0552 O.3     1  UNL1       -0.3537
      5 C         143.7651  142.7450  162.0076 C.3     1  UNL1        0.1436
      6 C         142.8434  142.8254  163.1883 C.3     1  UNL1        0.0485
      7 N         142.9702  141.4395  165.7945 N.3     1  UNL1       -0.2710
      8 C         142.9297  142.3511  166.9849 C.3     1  UNL1        0.0896
      9 C         142.7747  141.7789  168.3628 C.3     1  UNL1        0.0897
     10 N         142.6603  140.2951  168.5502 N.3     1  UNL1       -0.2702
     11 C         142.7008  139.3835  167.3597 C.3     1  UNL1        0.0897
     12 C         142.8558  139.9557  165.9818 C.3     1  UNL1        0.0896
     13 C         142.5054  139.7229  169.9281 C.3     1  UNL1        0.0748
     14 C         141.3533  140.1457  170.7906 C.3     1  UNL1        0.0494
     15 C         139.9744  140.2388  170.2074 C.3     1  UNL1        0.1437
     16 O         139.1641  141.4872  170.3938 O.3     1  UNL1       -0.3511
     17 C         139.8510  142.8134  170.5332 C.3     1  UNL1        0.1741
     18 C         141.8678  142.7071  164.8475 C.3     1  UNL1        0.1143
     19 C         139.6284  143.4010  163.7279 C.2     1  UNL1        0.2304
     20 O         140.0175  144.8450  163.8447 O.2     1  UNL1       -0.2745
     21 N         140.5537  142.3321  164.2293 N.am    1  UNL1       -0.2425
     22 C         140.1647  140.8881  164.1125 C.ar    1  UNL1        0.1373
     23 C         140.6015  140.0877  162.9215 C.ar    1  UNL1        0.0347
     24 C         140.2125  138.6437  162.8048 C.ar    1  UNL1        0.0044
     25 C         139.3867  138.0002  163.8789 C.ar    1  UNL1        0.0232
     26 C         138.9498  138.8007  165.0699 C.ar    1  UNL1        0.1540
     27 N         139.3388  140.2446  165.1867 N.ar    1  UNL1       -0.2263
     28 C         138.1239  138.1571  166.1441 C.3     1  UNL1        0.4349
     29 F         137.2980  137.5137  167.2183 F       1  UNL1       -0.1644
     30 F         138.5208  136.8022  165.6375 F       1  UNL1       -0.1644
     31 F         137.7270  139.5121  166.6506 F       1  UNL1       -0.1644
     32 C         138.2149  142.8170  161.6277 C.3     1  UNL1        0.0101
     33 C         138.3142  143.0260  163.1097 C.3     1  UNL1        0.0857
@<TRIPOS>BOND
     1    32    33    1
     2    33    19    1
     3    19    20    2
     4    19    21   am
     5    21    18    1
     6    18     1    1
     7     1     7    1
     8     7     8    1
     9     8     9    1
    10     9    10    1
    11    10    13    1
    12    13    14    1
    13    14    15    1
    14    15    16    1
    15    16    17    1
    16    10    11    1
    17    11    12    1
    18     1     2    1
    19     2     3    1
    20     3     4    1
    21     4     5    1
    22     5     6    1
    23    21    22    1
    24    22    23   ar
    25    23    24   ar
    26    24    25   ar
    27    25    26   ar
    28    26    28    1
    29    28    29    1
    30    28    30    1
    31    28    31    1
    32    26    27   ar
    33     6     1    1
    34    27    22   ar
    35    12     7    1
@<TRIPOS>MOLECULE
*****
 33 35 0 0 0
SMALL
GASTEIGER

@<TRIPOS>ATOM
      1 C         142.1799  139.0585  164.5887 C.3     1  UNL1        0.0690
      2 C         141.0275  138.1018  164.6688 C.3     1  UNL1        0.0485
      3 C         140.7350  137.1822  163.5204 C.3     1  UNL1        0.1436
      4 O         141.5950  137.2194  162.2920 O.3     1  UNL1       -0.3537
      5 C         142.7474  138.1761  162.2119 C.3     1  UNL1        0.1436
      6 C         143.0399  139.0957  163.3603 C.3     1  UNL1        0.0485
      7 N         141.6572  139.3941  165.9541 N.3     1  UNL1       -0.2710
      8 C         142.6056  139.5273  167.1085 C.3     1  UNL1        0.0896
      9 C         142.0828  139.8629  168.4738 C.3     1  UNL1        0.0897
     10 N         140.6116  140.0653  168.6847 N.3     1  UNL1       -0.2702
     11 C         139.6631  139.9321  167.5303 C.3     1  UNL1        0.0897
     12 C         140.1859  139.5965  166.1650 C.3     1  UNL1        0.0896
     13 C         140.0888  140.4009  170.0500 C.3     1  UNL1        0.0748
     14 C         139.6488  141.8007  170.3615 C.3     1  UNL1        0.0494
     15 C         140.3139  142.9636  169.6867 C.3     1  UNL1        0.1437
     16 O         141.4518  143.6713  170.3608 O.3     1  UNL1       -0.3511
     17 C         142.8061  143.0291  170.4177 C.3     1  UNL1        0.1741
     18 C         143.1509  140.1319  164.9829 C.3     1  UNL1        0.1143
     19 C         144.1840  142.2468  163.8830 C.2     1  UNL1        0.2304
     20 O         145.5293  141.5834  163.8711 O.2     1  UNL1       -0.2745
     21 N         142.9948  141.5210  164.4389 N.am    1  UNL1       -0.2425
     22 C         141.6494  142.1843  164.4507 C.ar    1  UNL1        0.1373
     23 C         141.1709  142.8875  165.6863 C.ar    1  UNL1        0.0347
     24 C         139.8255  143.5508  165.6981 C.ar    1  UNL1        0.0044
     25 C         138.9589  143.5110  164.4745 C.ar    1  UNL1        0.0232
     26 C         139.4375  142.8078  163.2390 C.ar    1  UNL1        0.1540
     27 N         140.7828  142.1445  163.2271 N.ar    1  UNL1       -0.2263
     28 C         138.5708  142.7680  162.0153 C.3     1  UNL1        0.4349
     29 F         137.7042  142.7282  160.7916 F       1  UNL1       -0.1644
     30 F         137.3705  143.0902  162.8551 F       1  UNL1       -0.1644
     31 F         139.7713  142.4458  161.1756 F       1  UNL1       -0.1644
     32 C         143.9522  144.8045  164.2764 C.3     1  UNL1        0.0101
     33 C         144.0279  143.6359  163.3390 C.3     1  UNL1        0.0857
@<TRIPOS>BOND
     1    32    33    1
     2    33    19    1
     3    19    20    2
     4    19    21   am
     5    21    18    1
     6    18     1    1
     7     1     7    1
     8     7     8    1
     9     8     9    1
    10     9    10    1
    11    10    13    1
    12    13    14    1
    13    14    15    1
    14    15    16    1
    15    16    17    1
    16    10    11    1
    17    11    12    1
    18     1     2    1
    19     2     3    1
    20     3     4    1
    21     4     5    1
    22     5     6    1
    23    21    22    1
    24    22    23   ar
    25    23    24   ar
    26    24    25   ar
    27    25    26   ar
    28    26    28    1
    29    28    29    1
    30    28    30    1
    31    28    31    1
    32    26    27   ar
    33     6     1    1
    34    27    22   ar
    35    12     7    1
@<TRIPOS>MOLECULE
*****
 33 35 0 0 0
SMALL
GASTEIGER

@<TRIPOS>ATOM
      1 C         143.5110  141.9832  164.6365 C.3     1  UNL1        0.0690
      2 C         144.4375  140.8037  164.6185 C.3     1  UNL1        0.0485
      3 C         145.3021  140.5474  163.4198 C.3     1  UNL1        0.1436
      4 O         145.2402  141.4707  162.2392 O.3     1  UNL1       -0.3537
      5 C         144.3136  142.6501  162.2572 C.3     1  UNL1        0.1436
      6 C         143.4490  142.9064  163.4559 C.3     1  UNL1        0.0485
      7 N         143.2155  141.3992  165.9862 N.3     1  UNL1       -0.2710
      8 C         142.9676  139.9267  166.1284 C.3     1  UNL1        0.0896
      9 C         142.6722  139.3427  167.4780 C.3     1  UNL1        0.0897
     10 N         142.6246  140.2313  168.6856 N.3     1  UNL1       -0.2702
     11 C         142.8725  141.7038  168.5435 C.3     1  UNL1        0.0897
     12 C         143.1680  142.2877  167.1938 C.3     1  UNL1        0.0896
     13 C         142.3291  139.6473  170.0353 C.3     1  UNL1        0.0748
     14 C         141.2023  140.1958  170.8595 C.3     1  UNL1        0.0494
     15 C         139.8239  140.2926  170.2756 C.3     1  UNL1        0.1437
     16 O         139.0739  141.5902  170.3346 O.3     1  UNL1       -0.3511
     17 C         139.8123  142.8728  170.5786 C.3     1  UNL1        0.1741
     18 C         142.4818  142.9598  165.1233 C.3     1  UNL1        0.1143
     19 C         140.4359  144.1153  164.0147 C.2     1  UNL1        0.2304
     20 O         141.1986  145.4054  163.9518 O.2     1  UNL1       -0.2745
     21 N         141.0775  142.8925  164.6005 N.am    1  UNL1       -0.2425
     22 C         140.3148  141.6024  164.6634 C.ar    1  UNL1        0.1373
     23 C         139.5933  141.2184  165.9212 C.ar    1  UNL1        0.0347
     24 C         138.8306  139.9283  165.9841 C.ar    1  UNL1        0.0044
     25 C         138.7894  139.0223  164.7893 C.ar    1  UNL1        0.0232
     26 C         139.5109  139.4064  163.5317 C.ar    1  UNL1        0.1540
     27 N         140.2736  140.6965  163.4687 N.ar    1  UNL1       -0.2263
     28 C         139.4698  138.5004  162.3368 C.3     1  UNL1        0.4349
     29 F         139.4286  137.5944  161.1420 F       1  UNL1       -0.1644
     30 F         138.2772  137.7958  162.9123 F       1  UNL1       -0.1644
     31 F         140.6624  139.2051  161.7614 F       1  UNL1       -0.1644
     32 C         137.8733  144.2273  164.4279 C.3     1  UNL1        0.0101
     33 C         139.0316  144.0481  163.4919 C.3     1  UNL1        0.0857
@<TRIPOS>BOND
     1    32    33    1
     2    33    19    1
     3    19    20    2
     4    19    21   am
     5    21    18    1
     6    18     1    1
     7     1     7    1
     8     7     8    1
     9     8     9    1
    10     9    10    1
    11    10    13    1
    12    13    14    1
    13    14    15    1
    14    15    16    1
    15    16    17    1
    16    10    11    1
    17    11    12    1
    18     1     2    1
    19     2     3    1
    20     3     4    1
    21     4     5    1
    22     5     6    1
    23    21    22    1
    24    22    23   ar
    25    23    24   ar
    26    24    25   ar
    27    25    26   ar
    28    26    28    1
    29    28    29    1
    30    28    30    1
    31    28    31    1
    32    26    27   ar
    33     6     1    1
    34    27    22   ar
    35    12     7    1
@<TRIPOS>MOLECULE
*****
 33 35 0 0 0
SMALL
GASTEIGER

@<TRIPOS>ATOM
      1 C         143.4701  140.3989  164.2075 C.3     1  UNL1        0.0690
      2 C         144.5511  141.3344  164.6615 C.3     1  UNL1        0.0485
      3 C         145.5685  141.8373  163.6806 C.3     1  UNL1        0.1436
      4 O         145.5048  141.4046  162.2457 O.3     1  UNL1       -0.3537
      5 C         144.4237  140.4691  161.7918 C.3     1  UNL1        0.1436
      6 C         143.4064  139.9662  162.7727 C.3     1  UNL1        0.0485
      7 N         143.1156  140.5214  165.6599 N.3     1  UNL1       -0.2710
      8 C         143.0012  139.2911  166.5104 C.3     1  UNL1        0.0896
      9 C         142.6467  139.4137  167.9627 C.3     1  UNL1        0.0897
     10 N         142.4066  140.7665  168.5646 N.3     1  UNL1       -0.2702
     11 C         142.5210  141.9968  167.7141 C.3     1  UNL1        0.0897
     12 C         142.8755  141.8742  166.2618 C.3     1  UNL1        0.0896
     13 C         142.0521  140.8890  170.0170 C.3     1  UNL1        0.0748
     14 C         140.6403  140.6556  170.4667 C.3     1  UNL1        0.0494
     15 C         139.5109  140.7801  169.4873 C.3     1  UNL1        0.1437
     16 O         139.1612  139.6262  168.5951 O.3     1  UNL1       -0.3511
     17 C         139.2074  139.7896  167.1048 C.3     1  UNL1        0.1741
     18 C         142.2659  139.5059  164.2580 C.3     1  UNL1        0.1143
     19 C         140.1345  138.7964  162.9527 C.2     1  UNL1        0.2304
     20 O         140.4795  137.3534  163.1738 O.2     1  UNL1       -0.2745
     21 N         141.0278  139.8726  163.4948 N.am    1  UNL1       -0.2425
     22 C         140.6828  141.3156  163.2738 C.ar    1  UNL1        0.1373
     23 C         140.9734  141.9621  161.9518 C.ar    1  UNL1        0.0347
     24 C         140.6284  143.4051  161.7308 C.ar    1  UNL1        0.0044
     25 C         139.9928  144.2014  162.8316 C.ar    1  UNL1        0.0232
     26 C         139.7022  143.5548  164.1535 C.ar    1  UNL1        0.1540
     27 N         140.0471  142.1119  164.3746 N.ar    1  UNL1       -0.2263
     28 C         139.0665  144.3512  165.2544 C.3     1  UNL1        0.4349
     29 F         138.4309  145.1475  166.3552 F       1  UNL1       -0.1644
     30 F         138.0405  144.8664  164.2891 F       1  UNL1       -0.1644
     31 F         140.0926  143.8359  166.2196 F       1  UNL1       -0.1644
     32 C         137.8814  138.1100  161.8561 C.3     1  UNL1        0.0101
     33 C         138.8964  139.1630  162.1895 C.3     1  UNL1        0.0857
@<TRIPOS>BOND
     1    32    33    1
     2    33    19    1
     3    19    20    2
     4    19    21   am
     5    21    18    1
     6    18     1    1
     7     1     7    1
     8     7     8    1
     9     8     9    1
    10     9    10    1
    11    10    13    1
    12    13    14    1
    13    14    15    1
    14    15    16    1
    15    16    17    1
    16    10    11    1
    17    11    12    1
    18     1     2    1
    19     2     3    1
    20     3     4    1
    21     4     5    1
    22     5     6    1
    23    21    22    1
    24    22    23   ar
    25    23    24   ar
    26    24    25   ar
    27    25    26   ar
    28    26    28    1
    29    28    29    1
    30    28    30    1
    31    28    31    1
    32    26    27   ar
    33     6     1    1
    34    27    22   ar
    35    12     7    1
@<TRIPOS>MOLECULE
*****
 33 35 0 0 0
SMALL
GASTEIGER

@<TRIPOS>ATOM
      1 C         139.9032  139.4878  165.9415 C.3     1  UNL1        0.0690
      2 C         140.3304  140.0966  167.2441 C.3     1  UNL1        0.0485
      3 C         139.4543  139.9686  168.4549 C.3     1  UNL1        0.1436
      4 O         138.1510  139.2317  168.3631 O.3     1  UNL1       -0.3537
      5 C         137.7238  138.6228  167.0605 C.3     1  UNL1        0.1436
      6 C         138.5999  138.7509  165.8497 C.3     1  UNL1        0.0485
      7 N         141.2166  140.0853  165.5315 N.3     1  UNL1       -0.2710
      8 C         141.4836  141.5425  165.7665 C.3     1  UNL1        0.0896
      9 C         142.7970  142.1399  165.3564 C.3     1  UNL1        0.0897
     10 N         143.8433  141.2802  164.7113 N.3     1  UNL1       -0.2702
     11 C         143.5762  139.8230  164.4763 C.3     1  UNL1        0.0897
     12 C         142.2629  139.2255  164.8864 C.3     1  UNL1        0.0896
     13 C         145.1566  141.8777  164.3012 C.3     1  UNL1        0.0748
     14 C         145.4621  142.0920  162.8484 C.3     1  UNL1        0.0494
     15 C         144.4857  142.8250  161.9769 C.3     1  UNL1        0.1437
     16 O         143.3189  142.0956  161.3798 O.3     1  UNL1       -0.3511
     17 C         143.5199  140.7517  160.7448 C.3     1  UNL1        0.1741
     18 C         139.9322  139.0864  164.4965 C.3     1  UNL1        0.1143
     19 C         138.3053  139.0382  162.4715 C.2     1  UNL1        0.2304
     20 O         138.3886  137.5408  162.4402 O.2     1  UNL1       -0.2745
     21 N         139.0771  139.8109  163.4996 N.am    1  UNL1       -0.2425
     22 C         138.9938  141.3083  163.5308 C.ar    1  UNL1        0.1373
     23 C         137.9927  141.9854  164.4193 C.ar    1  UNL1        0.0347
     24 C         137.9094  143.4828  164.4505 C.ar    1  UNL1        0.0044
     25 C         138.8272  144.3030  163.5932 C.ar    1  UNL1        0.0232
     26 C         139.8282  143.6259  162.7048 C.ar    1  UNL1        0.1540
     27 N         139.9116  142.1286  162.6735 N.ar    1  UNL1       -0.2263
     28 C         140.7461  144.4462  161.8475 C.3     1  UNL1        0.4349
     29 F         141.6638  145.2664  160.9902 F       1  UNL1       -0.1644
     30 F         141.7516  144.4834  162.9598 F       1  UNL1       -0.1644
     31 F         139.7404  144.4089  160.7352 F       1  UNL1       -0.1644
     32 C         137.9623  140.0101  160.0865 C.3     1  UNL1        0.0101
     33 C         137.4502  139.7626  161.4745 C.3     1  UNL1        0.0857
@<TRIPOS>BOND
     1    32    33    1
     2    33    19    1
     3    19    20    2
     4    19    21   am
     5    21    18    1
     6    18     1    1
     7     1     7    1
     8     7     8    1
     9     8     9    1
    10     9    10    1
    11    10    13    1
    12    13    14    1
    13    14    15    1
    14    15    16    1
    15    16    17    1
    16    10    11    1
    17    11    12    1
    18     1     2    1
    19     2     3    1
    20     3     4    1
    21     4     5    1
    22     5     6    1
    23    21    22    1
    24    22    23   ar
    25    23    24   ar
    26    24    25   ar
    27    25    26   ar
    28    26    28    1
    29    28    29    1
    30    28    30    1
    31    28    31    1
    32    26    27   ar
    33     6     1    1
    34    27    22   ar
    35    12     7    1
@<TRIPOS>MOLECULE
*****
 33 35 0 0 0
SMALL
GASTEIGER

@<TRIPOS>ATOM
      1 C         141.1154  141.2140  167.2072 C.3     1  UNL1        0.0690
      2 C         139.9505  140.6595  167.9723 C.3     1  UNL1        0.0485
      3 C         139.7112  141.0888  169.3895 C.3     1  UNL1        0.1436
      4 O         140.6369  142.0726  170.0415 O.3     1  UNL1       -0.3537
      5 C         141.8018  142.6272  169.2764 C.3     1  UNL1        0.1436
      6 C         142.0410  142.1979  167.8592 C.3     1  UNL1        0.0485
      7 N         140.5228  140.3142  166.1634 N.3     1  UNL1       -0.2710
      8 C         139.0549  140.3801  165.8621 C.3     1  UNL1        0.0896
      9 C         138.4624  139.4804  164.8184 C.3     1  UNL1        0.0897
     10 N         139.3378  138.5146  164.0761 N.3     1  UNL1       -0.2702
     11 C         140.8057  138.4487  164.3775 C.3     1  UNL1        0.0897
     12 C         141.3982  139.3485  165.4212 C.3     1  UNL1        0.0896
     13 C         138.7453  137.6148  163.0324 C.3     1  UNL1        0.0748
     14 C         138.0254  138.2036  161.8555 C.3     1  UNL1        0.0494
     15 C         138.8051  138.7638  160.7029 C.3     1  UNL1        0.1437
     16 O         140.2232  139.2100  160.9029 O.3     1  UNL1       -0.3511
     17 C         140.8282  140.2233  159.9772 C.3     1  UNL1        0.1741
     18 C         142.0745  141.4561  166.0795 C.3     1  UNL1        0.1143
     19 C         143.1542  143.5168  164.9230 C.2     1  UNL1        0.2304
     20 O         144.4967  143.1127  165.4563 O.2     1  UNL1       -0.2745
     21 N         141.9431  142.6884  165.2346 N.am    1  UNL1       -0.2425
     22 C         140.6006  143.0925  164.7013 C.ar    1  UNL1        0.1373
     23 C         139.7178  144.0021  165.5033 C.ar    1  UNL1        0.0347
     24 C         138.3753  144.4062  164.9699 C.ar    1  UNL1        0.0044
     25 C         137.9156  143.9006  163.6346 C.ar    1  UNL1        0.0232
     26 C         138.7984  142.9909  162.8327 C.ar    1  UNL1        0.1540
     27 N         140.1409  142.5868  163.3660 N.ar    1  UNL1       -0.2263
     28 C         138.3387  142.4853  161.4973 C.3     1  UNL1        0.4349
     29 F         137.8791  141.9796  160.1620 F       1  UNL1       -0.1644
     30 F         137.3864  141.5487  162.1799 F       1  UNL1       -0.1644
     31 F         139.2911  143.4219  160.8148 F       1  UNL1       -0.1644
     32 C         143.1720  144.6567  162.5884 C.3     1  UNL1        0.0101
     33 C         143.0228  144.7492  164.0780 C.3     1  UNL1        0.0857
@<TRIPOS>BOND
     1    32    33    1
     2    33    19    1
     3    19    20    2
     4    19    21   am
     5    21    18    1
     6    18     1    1
     7     1     7    1
     8     7     8    1
     9     8     9    1
    10     9    10    1
    11    10    13    1
    12    13    14    1
    13    14    15    1
    14    15    16    1
    15    16    17    1
    16    10    11    1
    17    11    12    1
    18     1     2    1
    19     2     3    1
    20     3     4    1
    21     4     5    1
    22     5     6    1
    23    21    22    1
    24    22    23   ar
    25    23    24   ar
    26    24    25   ar
    27    25    26   ar
    28    26    28    1
    29    28    29    1
    30    28    30    1
    31    28    31    1
    32    26    27   ar
    33     6     1    1
    34    27    22   ar
    35    12     7    1
@<TRIPOS>MOLECULE
*****
 33 35 0 0 0
SMALL
GASTEIGER

@<TRIPOS>ATOM
      1 C         139.4295  141.0810  165.6115 C.3     1  UNL1        0.0690
      2 C         138.9519  140.4628  164.3311 C.3     1  UNL1        0.0485
      3 C         138.3110  139.1067  164.3464 C.3     1  UNL1        0.1436
      4 O         138.1477  138.3689  165.6422 O.3     1  UNL1       -0.3537
      5 C         138.6253  138.9872  166.9226 C.3     1  UNL1        0.1436
      6 C         139.2663  140.3432  166.9073 C.3     1  UNL1        0.0485
      7 N         139.8039  142.1642  164.6437 N.3     1  UNL1       -0.2710
      8 C         139.5025  143.5973  164.9686 C.3     1  UNL1        0.0896
      9 C         139.8769  144.6804  164.0008 C.3     1  UNL1        0.0897
     10 N         140.5526  144.3305  162.7081 N.3     1  UNL1       -0.2702
     11 C         140.8539  142.8975  162.3832 C.3     1  UNL1        0.0897
     12 C         140.4796  141.8143  163.3510 C.3     1  UNL1        0.0896
     13 C         140.9269  145.4137  161.7403 C.3     1  UNL1        0.0748
     14 C         140.3876  145.3883  160.3408 C.3     1  UNL1        0.0494
     15 C         141.2424  144.8825  159.2167 C.3     1  UNL1        0.1437
     16 O         142.1173  145.8325  158.4537 O.3     1  UNL1       -0.3511
     17 C         142.0756  145.8508  156.9544 C.3     1  UNL1        0.1741
     18 C         140.0372  142.0755  166.5559 C.3     1  UNL1        0.1143
     19 C         141.7190  142.3850  168.5118 C.2     1  UNL1        0.2304
     20 O         140.7209  143.2403  169.2346 O.2     1  UNL1       -0.2745
     21 N         141.3771  141.8026  167.1725 N.am    1  UNL1       -0.2425
     22 C         142.3751  140.9473  166.4497 C.ar    1  UNL1        0.1373
     23 C         142.4504  139.4770  166.7371 C.ar    1  UNL1        0.0347
     24 C         143.4485  138.6217  166.0143 C.ar    1  UNL1        0.0044
     25 C         144.3711  139.2367  165.0041 C.ar    1  UNL1        0.0232
     26 C         144.2957  140.7070  164.7168 C.ar    1  UNL1        0.1540
     27 N         143.2978  141.5623  165.4395 N.ar    1  UNL1       -0.2263
     28 C         145.2185  141.3220  163.7065 C.3     1  UNL1        0.4349
     29 F         146.1411  141.9370  162.6963 F       1  UNL1       -0.1644
     30 F         145.0515  140.1213  162.8231 F       1  UNL1       -0.1644
     31 F         145.3854  142.5227  164.5900 F       1  UNL1       -0.1644
     32 C         143.2179  140.9896  170.1107 C.3     1  UNL1        0.0101
     33 C         143.0588  142.1121  169.1285 C.3     1  UNL1        0.0857
@<TRIPOS>BOND
     1    32    33    1
     2    33    19    1
     3    19    20    2
     4    19    21   am
     5    21    18    1
     6    18     1    1
     7     1     7    1
     8     7     8    1
     9     8     9    1
    10     9    10    1
    11    10    13    1
    12    13    14    1
    13    14    15    1
    14    15    16    1
    15    16    17    1
    16    10    11    1
    17    11    12    1
    18     1     2    1
    19     2     3    1
    20     3     4    1
    21     4     5    1
    22     5     6    1
    23    21    22    1
    24    22    23   ar
    25    23    24   ar
    26    24    25   ar
    27    25    26   ar
    28    26    28    1
    29    28    29    1
    30    28    30    1
    31    28    31    1
    32    26    27   ar
    33     6     1    1
    34    27    22   ar
    35    12     7    1
@<TRIPOS>MOLECULE
*****
 33 35 0 0 0
SMALL
GASTEIGER

@<TRIPOS>ATOM
      1 C         139.0624  139.8641  164.7067 C.3     1  UNL1        0.0690
      2 C         138.9293  139.5433  163.2475 C.3     1  UNL1        0.0485
      3 C         138.7633  138.1198  162.8046 C.3     1  UNL1        0.1436
      4 O         138.7305  137.0171  163.8210 O.3     1  UNL1       -0.3537
      5 C         138.8636  137.3379  165.2802 C.3     1  UNL1        0.1436
      6 C         139.0296  138.7614  165.7231 C.3     1  UNL1        0.0485
      7 N         139.1524  141.2447  164.1272 N.3     1  UNL1       -0.2710
      8 C         138.2649  142.3360  164.6481 C.3     1  UNL1        0.0896
      9 C         138.3549  143.7166  164.0687 C.3     1  UNL1        0.0897
     10 N         139.3323  144.0059  162.9683 N.3     1  UNL1       -0.2702
     11 C         140.2198  142.9146  162.4474 C.3     1  UNL1        0.0897
     12 C         140.1298  141.5340  163.0268 C.3     1  UNL1        0.0896
     13 C         139.4223  145.3866  162.3888 C.3     1  UNL1        0.0748
     14 C         140.4855  145.7093  161.3812 C.3     1  UNL1        0.0494
     15 C         140.2337  145.4691  159.9220 C.3     1  UNL1        0.1437
     16 O         141.3364  144.9535  159.0456 O.3     1  UNL1       -0.3511
     17 C         141.8338  145.7836  157.8996 C.3     1  UNL1        0.1741
     18 C         139.2268  140.6644  165.9647 C.3     1  UNL1        0.1143
     19 C         140.5686  140.2927  168.1582 C.2     1  UNL1        0.2304
     20 O         139.2965  139.9597  168.8799 O.2     1  UNL1       -0.2745
     21 N         140.5337  140.6450  166.7005 N.am    1  UNL1       -0.2425
     22 C         141.8058  140.9780  165.9788 C.ar    1  UNL1        0.1373
     23 C         142.6759  139.8783  165.4463 C.ar    1  UNL1        0.0347
     24 C         143.9480  140.2113  164.7245 C.ar    1  UNL1        0.0044
     25 C         144.3499  141.6440  164.5353 C.ar    1  UNL1        0.0232
     26 C         143.4799  142.7436  165.0678 C.ar    1  UNL1        0.1540
     27 N         142.2078  142.4107  165.7895 N.ar    1  UNL1       -0.2263
     28 C         143.8818  144.1764  164.8785 C.3     1  UNL1        0.4349
     29 F         144.2838  145.6091  164.6893 F       1  UNL1       -0.1644
     30 F         145.0386  143.9751  165.8120 F       1  UNL1       -0.1644
     31 F         142.7250  144.3777  163.9451 F       1  UNL1       -0.1644
     32 C         142.2997  139.0414  169.6372 C.3     1  UNL1        0.0101
     33 C         141.8755  140.2734  168.8941 C.3     1  UNL1        0.0857
@<TRIPOS>BOND
     1    32    33    1
     2    33    19    1
     3    19    20    2
     4    19    21   am
     5    21    18    1
     6    18     1    1
     7     1     7    1
     8     7     8    1
     9     8     9    1
    10     9    10    1
    11    10    13    1
    12    13    14    1
    13    14    15    1
    14    15    16    1
    15    16    17    1
    16    10    11    1
    17    11    12    1
    18     1     2    1
    19     2     3    1
    20     3     4    1
    21     4     5    1
    22     5     6    1
    23    21    22    1
    24    22    23   ar
    25    23    24   ar
    26    24    25   ar
    27    25    26   ar
    28    26    28    1
    29    28    29    1
    30    28    30    1
    31    28    31    1
    32    26    27   ar
    33     6     1    1
    34    27    22   ar
    35    12     7    1
