@<TRIPOS>MOLECULE
*****
 39 41 0 0 0
SMALL
GASTEIGER

@<TRIPOS>ATOM
      1 C         142.2835  138.8154  162.7651 C.3     1  UNL1        0.1194
      2 C         143.5619  139.1823  162.0715 C.3     1  UNL1        0.0802
      3 N         144.8093  139.4148  162.8716 N.3     1  UNL1       -0.2965
      4 C         144.7782  139.2805  164.3652 C.3     1  UNL1        0.0802
      5 C         143.4998  138.9136  165.0588 C.3     1  UNL1        0.1200
      6 C         142.2525  138.6810  164.2587 C.3     1  UNL1        0.1303
      7 O         140.9741  138.3141  164.9523 O.3     1  UNL1       -0.3834
      8 H         145.1167  140.3658  162.6678 H       1  UNL1        0.1233
      9 H         141.1266  138.2696  165.9092 H       1  UNL1        0.2104
     10 N         140.6086  139.5850  160.9342 N.am    1  UNL1       -0.3034
     11 C         141.0362  138.5828  161.9650 C.2     1  UNL1        0.2258
     12 O         140.2165  137.3480  162.1958 O.2     1  UNL1       -0.2750
     13 H         141.1466  140.3955  160.7827 H       1  UNL1        0.1495
     14 C         139.3613  139.3525  160.1341 C.3     1  UNL1        0.1011
     15 C         139.4470  138.7117  158.7806 C.3     1  UNL1        0.1615
     16 O         138.8119  139.3756  157.5949 O.3     1  UNL1       -0.3520
     17 C         137.7914  141.7628  157.4972 C.3     1  UNL1        0.0346
     18 C         138.9773  140.8514  157.3839 C.3     1  UNL1        0.1423
     19 C         138.0282  139.7607  160.6876 C.3     1  UNL1        0.0221
     20 C         137.9423  140.8666  161.6974 C.3     1  UNL1        0.0017
     21 C         138.0619  142.2954  161.2569 C.3     1  UNL1        0.0001
     22 C         137.7366  140.5436  163.1478 C.3     1  UNL1        0.0001
     23 C         143.4687  138.7793  166.5525 C.2     1  UNL1        0.2336
     24 O         144.2123  137.6610  167.2205 O.2     1  UNL1       -0.2744
     25 N         142.6939  139.7632  167.3780 N.am    1  UNL1       -0.2454
     26 C         141.9503  140.8816  166.7098 C.ar    1  UNL1        0.1404
     27 C         142.7066  141.9906  166.0406 C.ar    1  UNL1        0.0712
     28 C         141.9631  143.1089  165.3724 C.ar    1  UNL1        0.1390
     29 C         140.4631  143.1182  165.3735 C.ar    1  UNL1        0.0307
     30 C         139.7068  142.0091  166.0428 C.ar    1  UNL1        0.0990
     31 N         140.4503  140.8908  166.7109 N.ar    1  UNL1       -0.2289
     32 C         139.7195  144.2365  164.7054 C.3     1  UNL1        0.0269
     33 C         140.0658  144.6337  163.3010 C.3     1  UNL1        0.0048
     34 C         138.6295  144.9576  165.4416 C.3     1  UNL1        0.0048
     35 O         142.7194  144.2180  164.7032 O.3     1  UNL1       -0.4716
     36 C         143.9303  143.9065  163.8745 C.3     1  UNL1        0.2525
     37 C         142.6628  139.6289  168.8716 C.3     1  UNL1        0.0813
     38 C         142.3844  138.8093  170.0967 C.3     1  UNL1        0.0219
     39 C         142.8873  140.2158  170.2336 C.3     1  UNL1        0.0219
@<TRIPOS>BOND
     1    17    18    1
     2    18    16    1
     3    16    15    1
     4    14    15    1
     5    14    19    1
     6    19    20    1
     7    20    21    1
     8    20    22    1
     9    14    10    1
    10    10    11   am
    11    11    12    2
    12     1    11    1
    13     1     2    1
    14     2     3    1
    15     3     4    1
    16     4     5    1
    17     5    23    1
    18    23    24    2
    19    23    25   am
    20    25    26    1
    21    26    27   ar
    22    27    28   ar
    23    28    35    1
    24    35    36    1
    25    28    29   ar
    26    29    32    1
    27    32    33    1
    28    32    34    1
    29    29    30   ar
    30    30    31   ar
    31    25    37    1
    32    37    38    1
    33    38    39    1
    34     5     6    1
    35     6     7    1
    36     6     1    1
    37    31    26   ar
    38    39    37    1
    39    10    13    1
    40     3     8    1
    41     7     9    1
@<TRIPOS>MOLECULE
*****
 39 41 0 0 0
SMALL
GASTEIGER

@<TRIPOS>ATOM
      1 C         143.4427  142.8773  162.0413 C.3     1  UNL1        0.1194
      2 C         144.6134  142.1019  161.5139 C.3     1  UNL1        0.0802
      3 N         145.6684  141.6028  162.4563 N.3     1  UNL1       -0.2965
      4 C         145.5526  141.8792  163.9260 C.3     1  UNL1        0.0802
      5 C         144.3819  142.6546  164.4534 C.3     1  UNL1        0.1200
      6 C         143.3270  143.1536  163.5110 C.3     1  UNL1        0.1303
      7 O         142.1562  143.9291  164.0385 O.3     1  UNL1       -0.3834
      8 H         146.5528  142.0077  162.1493 H       1  UNL1        0.1233
      9 H         142.2345  144.0178  165.0012 H       1  UNL1        0.2104
     10 N         142.2383  144.8482  160.8519 N.am    1  UNL1       -0.3034
     11 C         142.3878  143.3763  161.0989 C.2     1  UNL1        0.2258
     12 O         141.4823  142.4034  160.4036 O.2     1  UNL1       -0.2750
     13 H         142.8326  145.4868  161.3082 H       1  UNL1        0.1495
     14 C         141.1834  145.3472  159.9095 C.3     1  UNL1        0.1011
     15 C         139.8265  145.7174  160.4307 C.3     1  UNL1        0.1615
     16 O         139.1889  144.8966  161.5123 O.3     1  UNL1       -0.3520
     17 C         138.6063  144.5409  164.0191 C.3     1  UNL1        0.0346
     18 C         139.2236  145.3729  162.9343 C.3     1  UNL1        0.1423
     19 C         141.4854  145.4760  158.4458 C.3     1  UNL1        0.0221
     20 C         140.3832  145.3387  157.4377 C.3     1  UNL1        0.0017
     21 C         139.8219  146.5585  156.7692 C.3     1  UNL1        0.0001
     22 C         139.8423  143.9814  157.0981 C.3     1  UNL1        0.0001
     23 C         144.2661  142.9310  165.9232 C.2     1  UNL1        0.2336
     24 O         145.1094  143.9990  166.5542 O.2     1  UNL1       -0.2744
     25 N         143.3070  142.1394  166.7619 N.am    1  UNL1       -0.2454
     26 C         142.4637  141.0714  166.1308 C.ar    1  UNL1        0.1404
     27 C         140.9936  141.2952  165.9340 C.ar    1  UNL1        0.0712
     28 C         140.1502  140.2272  165.3030 C.ar    1  UNL1        0.1390
     29 C         140.7770  138.9355  164.8687 C.ar    1  UNL1        0.0307
     30 C         142.2471  138.7118  165.0655 C.ar    1  UNL1        0.0990
     31 N         143.0905  139.7797  165.6965 N.ar    1  UNL1       -0.2289
     32 C         139.9337  137.8675  164.2376 C.3     1  UNL1        0.0269
     33 C         140.1145  137.5281  162.7878 C.3     1  UNL1        0.0048
     34 C         138.9096  137.1390  165.0564 C.3     1  UNL1        0.0048
     35 O         138.6801  140.4510  165.1062 O.3     1  UNL1       -0.4716
     36 C         138.1689  140.9651  163.7931 C.3     1  UNL1        0.2525
     37 C         143.1912  142.4158  168.2316 C.3     1  UNL1        0.0813
     38 C         142.3663  142.8271  169.4151 C.3     1  UNL1        0.0219
     39 C         143.8153  142.4833  169.5939 C.3     1  UNL1        0.0219
@<TRIPOS>BOND
     1    17    18    1
     2    18    16    1
     3    16    15    1
     4    14    15    1
     5    14    19    1
     6    19    20    1
     7    20    21    1
     8    20    22    1
     9    14    10    1
    10    10    11   am
    11    11    12    2
    12     1    11    1
    13     1     2    1
    14     2     3    1
    15     3     4    1
    16     4     5    1
    17     5    23    1
    18    23    24    2
    19    23    25   am
    20    25    26    1
    21    26    27   ar
    22    27    28   ar
    23    28    35    1
    24    35    36    1
    25    28    29   ar
    26    29    32    1
    27    32    33    1
    28    32    34    1
    29    29    30   ar
    30    30    31   ar
    31    25    37    1
    32    37    38    1
    33    38    39    1
    34     5     6    1
    35     6     7    1
    36     6     1    1
    37    31    26   ar
    38    39    37    1
    39    10    13    1
    40     3     8    1
    41     7     9    1
@<TRIPOS>MOLECULE
*****
 39 41 0 0 0
SMALL
GASTEIGER

@<TRIPOS>ATOM
      1 C         138.5837  139.9329  162.9588 C.3     1  UNL1        0.1194
      2 C         138.9600  138.6060  162.3690 C.3     1  UNL1        0.0802
      3 N         139.1859  137.4241  163.2646 N.3     1  UNL1       -0.2965
      4 C         139.0356  137.5690  164.7500 C.3     1  UNL1        0.0802
      5 C         138.6593  138.8959  165.3398 C.3     1  UNL1        0.1200
      6 C         138.4334  140.0778  164.4442 C.3     1  UNL1        0.1303
      7 O         138.0571  141.4047  165.0341 O.3     1  UNL1       -0.3834
      8 H         140.1395  137.1042  163.0950 H       1  UNL1        0.1233
      9 H         138.0026  141.3256  165.9993 H       1  UNL1        0.2104
     10 N         139.3370  141.4257  160.9704 N.am    1  UNL1       -0.3034
     11 C         138.3578  141.1148  162.0633 C.2     1  UNL1        0.2258
     12 O         137.1527  141.9858  162.2606 O.2     1  UNL1       -0.2750
     13 H         140.1280  140.8541  160.8409 H       1  UNL1        0.1495
     14 C         139.1111  142.6076  160.0749 C.3     1  UNL1        0.1011
     15 C         139.6019  143.9643  160.4853 C.3     1  UNL1        0.1615
     16 O         138.8668  144.7414  161.5368 O.3     1  UNL1       -0.3520
     17 C         141.0739  145.0459  162.8732 C.3     1  UNL1        0.0346
     18 C         139.6207  145.3612  162.6758 C.3     1  UNL1        0.1423
     19 C         138.3943  142.4328  158.7688 C.3     1  UNL1        0.0221
     20 C         139.1414  142.5856  157.4770 C.3     1  UNL1        0.0017
     21 C         140.4148  141.8254  157.2527 C.3     1  UNL1        0.0001
     22 C         138.6148  143.4985  156.4096 C.3     1  UNL1        0.0001
     23 C         138.5090  139.0408  166.8252 C.2     1  UNL1        0.2336
     24 O         137.4158  138.3067  167.5436 O.2     1  UNL1       -0.2744
     25 N         139.4518  139.9199  167.5922 N.am    1  UNL1       -0.2454
     26 C         140.5450  140.6540  166.8738 C.ar    1  UNL1        0.1404
     27 C         141.7564  139.9117  166.3927 C.ar    1  UNL1        0.0712
     28 C         142.8496  140.6457  165.6743 C.ar    1  UNL1        0.1390
     29 C         142.7314  142.1220  165.4369 C.ar    1  UNL1        0.0307
     30 C         141.5199  142.8643  165.9180 C.ar    1  UNL1        0.0990
     31 N         140.4268  142.1303  166.6364 N.ar    1  UNL1       -0.2289
     32 C         143.8246  142.8561  164.7185 C.3     1  UNL1        0.0269
     33 C         144.7460  143.7620  165.4802 C.3     1  UNL1        0.0048
     34 C         143.9962  142.6843  163.2383 C.3     1  UNL1        0.0048
     35 O         144.0610  139.9034  165.1932 O.3     1  UNL1       -0.4716
     36 C         144.0151  139.1548  163.8942 C.3     1  UNL1        0.2525
     37 C         139.3015  140.0649  169.0776 C.3     1  UNL1        0.0813
     38 C         138.5114  140.5324  170.2638 C.3     1  UNL1        0.0219
     39 C         139.8313  139.8485  170.4641 C.3     1  UNL1        0.0219
@<TRIPOS>BOND
     1    17    18    1
     2    18    16    1
     3    16    15    1
     4    14    15    1
     5    14    19    1
     6    19    20    1
     7    20    21    1
     8    20    22    1
     9    14    10    1
    10    10    11   am
    11    11    12    2
    12     1    11    1
    13     1     2    1
    14     2     3    1
    15     3     4    1
    16     4     5    1
    17     5    23    1
    18    23    24    2
    19    23    25   am
    20    25    26    1
    21    26    27   ar
    22    27    28   ar
    23    28    35    1
    24    35    36    1
    25    28    29   ar
    26    29    32    1
    27    32    33    1
    28    32    34    1
    29    29    30   ar
    30    30    31   ar
    31    25    37    1
    32    37    38    1
    33    38    39    1
    34     5     6    1
    35     6     7    1
    36     6     1    1
    37    31    26   ar
    38    39    37    1
    39    10    13    1
    40     3     8    1
    41     7     9    1
@<TRIPOS>MOLECULE
*****
 39 41 0 0 0
SMALL
GASTEIGER

@<TRIPOS>ATOM
      1 C         138.6515  139.9805  163.0684 C.3     1  UNL1        0.1194
      2 C         138.9268  138.6321  162.4718 C.3     1  UNL1        0.0802
      3 N         139.0405  137.4283  163.3594 N.3     1  UNL1       -0.2965
      4 C         138.8789  137.5728  164.8436 C.3     1  UNL1        0.0802
      5 C         138.6035  138.9212  165.4402 C.3     1  UNL1        0.1200
      6 C         138.4898  140.1251  164.5526 C.3     1  UNL1        0.1303
      7 O         138.2144  141.4735  165.1492 O.3     1  UNL1       -0.3834
      8 H         139.9672  137.0324  163.2013 H       1  UNL1        0.1233
      9 H         138.1382  141.3913  166.1127 H       1  UNL1        0.2104
     10 N         139.6278  142.2147  162.1711 N.am    1  UNL1       -0.3034
     11 C         138.5378  141.1843  162.1807 C.2     1  UNL1        0.2258
     12 O         137.3340  141.3578  161.3028 O.2     1  UNL1       -0.2750
     13 H         140.4179  142.1009  162.7474 H       1  UNL1        0.1495
     14 C         139.5141  143.4185  161.2835 C.3     1  UNL1        0.1011
     15 C         139.4161  143.2474  159.7965 C.3     1  UNL1        0.1615
     16 O         139.7336  144.3970  158.8868 O.3     1  UNL1       -0.3520
     17 C         141.5022  145.8491  157.6566 C.3     1  UNL1        0.0346
     18 C         141.1323  144.5881  158.3798 C.3     1  UNL1        0.1423
     19 C         139.4984  144.7935  161.8829 C.3     1  UNL1        0.0221
     20 C         140.0422  145.0163  163.2630 C.3     1  UNL1        0.0017
     21 C         139.1360  144.9057  164.4531 C.3     1  UNL1        0.0001
     22 C         141.4924  145.3497  163.4529 C.3     1  UNL1        0.0001
     23 C         138.4418  139.0658  166.9245 C.2     1  UNL1        0.2336
     24 O         137.3144  138.3697  167.6274 O.2     1  UNL1       -0.2744
     25 N         139.4076  139.9067  167.7057 N.am    1  UNL1       -0.2454
     26 C         140.5350  140.6029  167.0026 C.ar    1  UNL1        0.1404
     27 C         141.7070  139.8132  166.4999 C.ar    1  UNL1        0.0712
     28 C         142.8344  140.5093  165.7968 C.ar    1  UNL1        0.1390
     29 C         142.7898  141.9952  165.5966 C.ar    1  UNL1        0.0307
     30 C         141.6179  142.7849  166.0994 C.ar    1  UNL1        0.0990
     31 N         140.4904  142.0888  166.8024 N.ar    1  UNL1       -0.2289
     32 C         143.9173  142.6914  164.8935 C.3     1  UNL1        0.0269
     33 C         144.7869  143.6563  165.6435 C.3     1  UNL1        0.0048
     34 C         144.1750  142.4226  163.4405 C.3     1  UNL1        0.0048
     35 O         144.0064  139.7196  165.2941 O.3     1  UNL1       -0.4716
     36 C         144.3187  138.3791  165.8902 C.3     1  UNL1        0.2525
     37 C         139.2459  140.0513  169.1899 C.3     1  UNL1        0.0813
     38 C         139.8468  140.1000  170.5634 C.3     1  UNL1        0.0219
     39 C         138.3651  140.2531  170.3871 C.3     1  UNL1        0.0219
@<TRIPOS>BOND
     1    17    18    1
     2    18    16    1
     3    16    15    1
     4    14    15    1
     5    14    19    1
     6    19    20    1
     7    20    21    1
     8    20    22    1
     9    14    10    1
    10    10    11   am
    11    11    12    2
    12     1    11    1
    13     1     2    1
    14     2     3    1
    15     3     4    1
    16     4     5    1
    17     5    23    1
    18    23    24    2
    19    23    25   am
    20    25    26    1
    21    26    27   ar
    22    27    28   ar
    23    28    35    1
    24    35    36    1
    25    28    29   ar
    26    29    32    1
    27    32    33    1
    28    32    34    1
    29    29    30   ar
    30    30    31   ar
    31    25    37    1
    32    37    38    1
    33    38    39    1
    34     5     6    1
    35     6     7    1
    36     6     1    1
    37    31    26   ar
    38    39    37    1
    39    10    13    1
    40     3     8    1
    41     7     9    1
@<TRIPOS>MOLECULE
*****
 39 41 0 0 0
SMALL
GASTEIGER

@<TRIPOS>ATOM
      1 C         142.3702  138.7578  162.7090 C.3     1  UNL1        0.1194
      2 C         143.6443  139.1681  162.0323 C.3     1  UNL1        0.0802
      3 N         144.8747  139.4343  162.8479 N.3     1  UNL1       -0.2965
      4 C         144.8309  139.2903  164.3403 C.3     1  UNL1        0.0802
      5 C         143.5568  138.8800  165.0171 C.3     1  UNL1        0.1200
      6 C         142.3264  138.6137  164.2014 C.3     1  UNL1        0.1303
      7 O         141.0521  138.2034  164.8783 O.3     1  UNL1       -0.3834
      8 H         145.1549  140.3955  162.6530 H       1  UNL1        0.1233
      9 H         141.1952  138.1579  165.8366 H       1  UNL1        0.2104
     10 N         140.7341  139.4499  160.8132 N.am    1  UNL1       -0.3034
     11 C         141.1398  138.4915  161.8934 C.2     1  UNL1        0.2258
     12 O         140.3151  137.2669  162.1580 O.2     1  UNL1       -0.2750
     13 H         141.2754  140.2537  160.6395 H       1  UNL1        0.1495
     14 C         139.5037  139.1836  159.9976 C.3     1  UNL1        0.1011
     15 C         138.1523  139.5446  160.5391 C.3     1  UNL1        0.1615
     16 O         137.9586  139.7199  162.0162 O.3     1  UNL1       -0.3520
     17 C         137.9284  142.3176  162.0436 C.3     1  UNL1        0.0346
     18 C         137.4058  141.0070  162.5525 C.3     1  UNL1        0.1423
     19 C         139.6248  138.5565  158.6403 C.3     1  UNL1        0.0221
     20 C         140.0893  139.3770  157.4737 C.3     1  UNL1        0.0017
     21 C         139.6346  140.7990  157.3285 C.3     1  UNL1        0.0001
     22 C         141.0084  138.7755  156.4522 C.3     1  UNL1        0.0001
     23 C         143.5129  138.7359  166.5095 C.2     1  UNL1        0.2336
     24 O         144.2372  137.6036  167.1753 O.2     1  UNL1       -0.2744
     25 N         142.7448  139.7242  167.3362 N.am    1  UNL1       -0.2454
     26 C         142.0205  140.8565  166.6703 C.ar    1  UNL1        0.1404
     27 C         142.7958  141.9772  166.0434 C.ar    1  UNL1        0.0712
     28 C         142.0716  143.1096  165.3776 C.ar    1  UNL1        0.1390
     29 C         140.5722  143.1211  165.3387 C.ar    1  UNL1        0.0307
     30 C         139.7969  142.0004  165.9655 C.ar    1  UNL1        0.0990
     31 N         140.5211  140.8681  166.6314 N.ar    1  UNL1       -0.2289
     32 C         139.8479  144.2535  164.6728 C.3     1  UNL1        0.0269
     33 C         140.2607  144.7060  163.3036 C.3     1  UNL1        0.0048
     34 C         138.7108  144.9333  165.3762 C.3     1  UNL1        0.0048
     35 O         142.8468  144.2303  164.7508 O.3     1  UNL1       -0.4716
     36 C         143.9942  143.9273  163.8334 C.3     1  UNL1        0.2525
     37 C         142.7009  139.5801  168.8285 C.3     1  UNL1        0.0813
     38 C         142.7953  140.1898  170.1958 C.3     1  UNL1        0.0219
     39 C         142.5306  138.7210  170.0462 C.3     1  UNL1        0.0219
@<TRIPOS>BOND
     1    17    18    1
     2    18    16    1
     3    16    15    1
     4    14    15    1
     5    14    19    1
     6    19    20    1
     7    20    21    1
     8    20    22    1
     9    14    10    1
    10    10    11   am
    11    11    12    2
    12     1    11    1
    13     1     2    1
    14     2     3    1
    15     3     4    1
    16     4     5    1
    17     5    23    1
    18    23    24    2
    19    23    25   am
    20    25    26    1
    21    26    27   ar
    22    27    28   ar
    23    28    35    1
    24    35    36    1
    25    28    29   ar
    26    29    32    1
    27    32    33    1
    28    32    34    1
    29    29    30   ar
    30    30    31   ar
    31    25    37    1
    32    37    38    1
    33    38    39    1
    34     5     6    1
    35     6     7    1
    36     6     1    1
    37    31    26   ar
    38    39    37    1
    39    10    13    1
    40     3     8    1
    41     7     9    1
@<TRIPOS>MOLECULE
*****
 39 41 0 0 0
SMALL
GASTEIGER

@<TRIPOS>ATOM
      1 C         138.8213  139.3660  162.7044 C.3     1  UNL1        0.1194
      2 C         139.6643  138.1820  162.3337 C.3     1  UNL1        0.0802
      3 N         140.1835  137.2668  163.4027 N.3     1  UNL1       -0.2965
      4 C         139.8598  137.5356  164.8424 C.3     1  UNL1        0.0802
      5 C         139.0168  138.7196  165.2132 C.3     1  UNL1        0.1200
      6 C         138.4976  139.6348  164.1442 C.3     1  UNL1        0.1303
      7 O         137.6545  140.8188  164.5150 O.3     1  UNL1       -0.3834
      8 H         141.2005  137.2694  163.3241 H       1  UNL1        0.1233
      9 H         137.5416  140.8465  165.4780 H       1  UNL1        0.2104
     10 N         139.0206  140.3851  160.3229 N.am    1  UNL1       -0.3034
     11 C         138.3021  140.2812  161.6354 C.2     1  UNL1        0.2258
     12 O         137.0642  141.0926  161.8790 O.2     1  UNL1       -0.2750
     13 H         139.8331  139.8525  160.1630 H       1  UNL1        0.1495
     14 C         138.5014  141.3003  159.2539 C.3     1  UNL1        0.1011
     15 C         138.8241  142.7644  159.2983 C.3     1  UNL1        0.1615
     16 O         138.9633  143.4620  160.6189 O.3     1  UNL1       -0.3520
     17 C         141.4936  142.9451  160.9027 C.3     1  UNL1        0.0346
     18 C         140.3213  143.8555  161.1198 C.3     1  UNL1        0.1423
     19 C         137.6594  140.7512  158.1404 C.3     1  UNL1        0.0221
     20 C         138.2926  140.3894  156.8297 C.3     1  UNL1        0.0017
     21 C         137.4570  140.3242  155.5857 C.3     1  UNL1        0.0001
     22 C         139.7615  140.0928  156.7629 C.3     1  UNL1        0.0001
     23 C         138.6930  138.9884  166.6530 C.2     1  UNL1        0.2336
     24 O         137.5708  138.2496  167.3199 O.2     1  UNL1       -0.2744
     25 N         139.4915  139.9960  167.4258 N.am    1  UNL1       -0.2454
     26 C         140.6138  140.7348  166.7587 C.ar    1  UNL1        0.1404
     27 C         140.3546  142.0581  166.1018 C.ar    1  UNL1        0.0712
     28 C         141.4767  142.7969  165.4348 C.ar    1  UNL1        0.1390
     29 C         142.8581  142.2123  165.4247 C.ar    1  UNL1        0.0307
     30 C         143.1172  140.8889  166.0816 C.ar    1  UNL1        0.0990
     31 N         141.9951  140.1501  166.7486 N.ar    1  UNL1       -0.2289
     32 C         143.9803  142.9511  164.7577 C.3     1  UNL1        0.0269
     33 C         144.2776  142.7125  163.3070 C.3     1  UNL1        0.0048
     34 C         144.8052  143.9284  165.5415 C.3     1  UNL1        0.0048
     35 O         141.2176  144.1203  164.7780 O.3     1  UNL1       -0.4716
     36 C         139.8095  144.6041  164.5956 C.3     1  UNL1        0.2525
     37 C         139.1678  140.2648  168.8655 C.3     1  UNL1        0.0813
     38 C         139.4337  141.0108  170.1394 C.3     1  UNL1        0.0219
     39 C         138.3411  139.9845  170.0853 C.3     1  UNL1        0.0219
@<TRIPOS>BOND
     1    17    18    1
     2    18    16    1
     3    16    15    1
     4    14    15    1
     5    14    19    1
     6    19    20    1
     7    20    21    1
     8    20    22    1
     9    14    10    1
    10    10    11   am
    11    11    12    2
    12     1    11    1
    13     1     2    1
    14     2     3    1
    15     3     4    1
    16     4     5    1
    17     5    23    1
    18    23    24    2
    19    23    25   am
    20    25    26    1
    21    26    27   ar
    22    27    28   ar
    23    28    35    1
    24    35    36    1
    25    28    29   ar
    26    29    32    1
    27    32    33    1
    28    32    34    1
    29    29    30   ar
    30    30    31   ar
    31    25    37    1
    32    37    38    1
    33    38    39    1
    34     5     6    1
    35     6     7    1
    36     6     1    1
    37    31    26   ar
    38    39    37    1
    39    10    13    1
    40     3     8    1
    41     7     9    1
@<TRIPOS>MOLECULE
*****
 39 41 0 0 0
SMALL
GASTEIGER

@<TRIPOS>ATOM
      1 C         143.2178  139.2951  162.5497 C.3     1  UNL1        0.1194
      2 C         142.3480  138.1734  162.0648 C.3     1  UNL1        0.0802
      3 N         141.7219  137.2304  163.0491 N.3     1  UNL1       -0.2965
      4 C         141.9656  137.4092  164.5183 C.3     1  UNL1        0.0802
      5 C         142.8354  138.5309  165.0032 C.3     1  UNL1        0.1200
      6 C         143.4615  139.4739  164.0189 C.3     1  UNL1        0.1303
      7 O         144.3313  140.5956  164.5038 O.3     1  UNL1       -0.3834
      8 H         142.0477  136.2944  162.8083 H       1  UNL1        0.1233
      9 H         144.3842  140.5684  165.4720 H       1  UNL1        0.2104
     10 N         143.1938  140.4731  160.2341 N.am    1  UNL1       -0.3034
     11 C         143.8439  140.2380  161.5654 C.2     1  UNL1        0.2258
     12 O         145.1200  140.9459  161.9123 O.2     1  UNL1       -0.2750
     13 H         142.3563  140.0085  160.0064 H       1  UNL1        0.1495
     14 C         143.8199  141.4160  159.2498 C.3     1  UNL1        0.1011
     15 C         144.5500  140.8774  158.0554 C.3     1  UNL1        0.1615
     16 O         144.8548  141.7768  156.8943 O.3     1  UNL1       -0.3520
     17 C         147.1698  142.8622  157.3554 C.3     1  UNL1        0.0346
     18 C         146.2780  142.0227  156.4894 C.3     1  UNL1        0.1423
     19 C         143.7159  142.8976  159.4600 C.3     1  UNL1        0.0221
     20 C         142.5714  143.4650  160.2463 C.3     1  UNL1        0.0017
     21 C         141.2341  143.6543  159.5938 C.3     1  UNL1        0.0001
     22 C         142.7642  143.8431  161.6851 C.3     1  UNL1        0.0001
     23 C         143.0791  138.7097  166.4725 C.2     1  UNL1        0.2336
     24 O         143.9445  137.7340  167.2133 O.2     1  UNL1       -0.2744
     25 N         142.4574  139.8643  167.2008 N.am    1  UNL1       -0.2454
     26 C         141.5920  140.8401  166.4598 C.ar    1  UNL1        0.1404
     27 C         140.2095  140.4434  166.0338 C.ar    1  UNL1        0.0712
     28 C         139.3441  141.4191  165.2929 C.ar    1  UNL1        0.1390
     29 C         139.8611  142.7914  164.9779 C.ar    1  UNL1        0.0307
     30 C         141.2435  143.1881  165.4039 C.ar    1  UNL1        0.0990
     31 N         142.1090  142.2125  166.1448 N.ar    1  UNL1       -0.2289
     32 C         138.9956  143.7672  164.2369 C.3     1  UNL1        0.0269
     33 C         138.1308  144.7294  164.9959 C.3     1  UNL1        0.0048
     34 C         138.9951  143.7806  162.7370 C.3     1  UNL1        0.0048
     35 O         137.9616  141.0224  164.8669 O.3     1  UNL1       -0.4716
     36 C         137.7525  140.3219  163.5571 C.3     1  UNL1        0.2525
     37 C         142.7011  140.0432  168.6700 C.3     1  UNL1        0.0813
     38 C         142.6618  139.5024  170.0685 C.3     1  UNL1        0.0219
     39 C         143.1625  140.8936  169.8161 C.3     1  UNL1        0.0219
@<TRIPOS>BOND
     1    17    18    1
     2    18    16    1
     3    16    15    1
     4    14    15    1
     5    14    19    1
     6    19    20    1
     7    20    21    1
     8    20    22    1
     9    14    10    1
    10    10    11   am
    11    11    12    2
    12     1    11    1
    13     1     2    1
    14     2     3    1
    15     3     4    1
    16     4     5    1
    17     5    23    1
    18    23    24    2
    19    23    25   am
    20    25    26    1
    21    26    27   ar
    22    27    28   ar
    23    28    35    1
    24    35    36    1
    25    28    29   ar
    26    29    32    1
    27    32    33    1
    28    32    34    1
    29    29    30   ar
    30    30    31   ar
    31    25    37    1
    32    37    38    1
    33    38    39    1
    34     5     6    1
    35     6     7    1
    36     6     1    1
    37    31    26   ar
    38    39    37    1
    39    10    13    1
    40     3     8    1
    41     7     9    1
@<TRIPOS>MOLECULE
*****
 39 41 0 0 0
SMALL
GASTEIGER

@<TRIPOS>ATOM
      1 C         142.9371  138.9181  162.4435 C.3     1  UNL1        0.1194
      2 C         144.1513  139.6736  161.9910 C.3     1  UNL1        0.0802
      3 N         145.1713  140.1244  162.9942 N.3     1  UNL1       -0.2965
      4 C         144.9770  139.8195  164.4500 C.3     1  UNL1        0.0802
      5 C         143.7628  139.0640  164.9025 C.3     1  UNL1        0.1200
      6 C         142.7429  138.6133  163.8993 C.3     1  UNL1        0.1303
      7 O         141.5286  137.8577  164.3519 O.3     1  UNL1       -0.3834
      8 H         145.2368  141.1389  162.9120 H       1  UNL1        0.1233
      9 H         141.5576  137.7462  165.3151 H       1  UNL1        0.2104
     10 N         141.7508  139.2165  160.1514 N.am    1  UNL1       -0.3034
     11 C         141.9171  138.4674  161.4403 C.2     1  UNL1        0.2258
     12 O         141.0633  137.2676  161.7259 O.2     1  UNL1       -0.2750
     13 H         142.3111  140.0039  159.9640 H       1  UNL1        0.1495
     14 C         140.7308  138.7658  159.1482 C.3     1  UNL1        0.1011
     15 C         141.1685  138.0616  157.8982 C.3     1  UNL1        0.1615
     16 O         140.1587  137.3568  157.0417 O.3     1  UNL1       -0.3520
     17 C         138.5718  137.3493  154.9846 C.3     1  UNL1        0.0346
     18 C         139.6556  138.0065  155.7868 C.3     1  UNL1        0.1423
     19 C         139.2731  139.0193  159.3950 C.3     1  UNL1        0.0221
     20 C         138.6986  140.3845  159.1581 C.3     1  UNL1        0.0017
     21 C         137.9987  140.6899  157.8671 C.3     1  UNL1        0.0001
     22 C         138.8242  141.4443  160.2122 C.3     1  UNL1        0.0001
     23 C         143.5686  138.7591  166.3584 C.2     1  UNL1        0.2336
     24 O         144.3361  137.6412  166.9995 O.2     1  UNL1       -0.2744
     25 N         142.6068  139.5723  167.1731 N.am    1  UNL1       -0.2454
     26 C         141.8392  140.6903  166.5319 C.ar    1  UNL1        0.1404
     27 C         140.4061  140.4870  166.1385 C.ar    1  UNL1        0.0712
     28 C         139.6385  141.6049  165.4974 C.ar    1  UNL1        0.1390
     29 C         140.3041  142.9261  165.2497 C.ar    1  UNL1        0.0307
     30 C         141.7373  143.1294  165.6431 C.ar    1  UNL1        0.0990
     31 N         142.5048  142.0115  166.2842 N.ar    1  UNL1       -0.2289
     32 C         139.5366  144.0441  164.6085 C.3     1  UNL1        0.0269
     33 C         138.6570  144.9259  165.4444 C.3     1  UNL1        0.0048
     34 C         139.6487  144.2803  163.1315 C.3     1  UNL1        0.0048
     35 O         138.2054  141.4017  165.1040 O.3     1  UNL1       -0.4716
     36 C         137.8720  140.7753  163.7825 C.3     1  UNL1        0.2525
     37 C         142.4125  139.2675  168.6288 C.3     1  UNL1        0.0813
     38 C         142.8268  138.5316  169.8685 C.3     1  UNL1        0.0219
     39 C         141.6617  139.4753  169.9106 C.3     1  UNL1        0.0219
@<TRIPOS>BOND
     1    17    18    1
     2    18    16    1
     3    16    15    1
     4    14    15    1
     5    14    19    1
     6    19    20    1
     7    20    21    1
     8    20    22    1
     9    14    10    1
    10    10    11   am
    11    11    12    2
    12     1    11    1
    13     1     2    1
    14     2     3    1
    15     3     4    1
    16     4     5    1
    17     5    23    1
    18    23    24    2
    19    23    25   am
    20    25    26    1
    21    26    27   ar
    22    27    28   ar
    23    28    35    1
    24    35    36    1
    25    28    29   ar
    26    29    32    1
    27    32    33    1
    28    32    34    1
    29    29    30   ar
    30    30    31   ar
    31    25    37    1
    32    37    38    1
    33    38    39    1
    34     5     6    1
    35     6     7    1
    36     6     1    1
    37    31    26   ar
    38    39    37    1
    39    10    13    1
    40     3     8    1
    41     7     9    1
@<TRIPOS>MOLECULE
*****
 39 41 0 0 0
SMALL
GASTEIGER

@<TRIPOS>ATOM
      1 C         139.4001  139.4544  162.0450 C.3     1  UNL1        0.1194
      2 C         138.2887  140.2730  161.4578 C.3     1  UNL1        0.0802
      3 N         137.2639  140.9000  162.3558 N.3     1  UNL1       -0.2965
      4 C         137.3503  140.7085  163.8410 C.3     1  UNL1        0.0802
      5 C         138.4617  139.8899  164.4282 C.3     1  UNL1        0.1200
      6 C         139.4866  139.2629  163.5301 C.3     1  UNL1        0.1303
      7 O         140.5979  138.4443  164.1174 O.3     1  UNL1       -0.3834
      8 H         136.3560  140.5376  162.0646 H       1  UNL1        0.1233
      9 H         140.5072  138.4211  165.0828 H       1  UNL1        0.2104
     10 N         140.8034  139.4964  159.8589 N.am    1  UNL1       -0.3034
     11 C         140.4250  138.8273  161.1470 C.2     1  UNL1        0.2258
     12 O         141.0714  137.5312  161.5369 O.2     1  UNL1       -0.2750
     13 H         140.3792  140.3471  159.6029 H       1  UNL1        0.1495
     14 C         141.8283  138.8694  158.9609 C.3     1  UNL1        0.1011
     15 C         141.3929  138.0072  157.8133 C.3     1  UNL1        0.1615
     16 O         142.3896  137.5769  156.7782 O.3     1  UNL1       -0.3520
     17 C         143.8649  135.7186  155.7199 C.3     1  UNL1        0.0346
     18 C         142.9747  136.1967  156.8284 C.3     1  UNL1        0.1423
     19 C         143.2886  139.1045  159.2106 C.3     1  UNL1        0.0221
     20 C         143.7249  140.2186  160.1153 C.3     1  UNL1        0.0017
     21 C         144.0162  139.9408  161.5603 C.3     1  UNL1        0.0001
     22 C         143.8699  141.6104  159.5750 C.3     1  UNL1        0.0001
     23 C         138.5482  139.6984  165.9134 C.2     1  UNL1        0.2336
     24 O         137.5901  138.7765  166.6078 O.2     1  UNL1       -0.2744
     25 N         139.5928  140.4287  166.7042 N.am    1  UNL1       -0.2454
     26 C         140.5510  141.3505  166.0097 C.ar    1  UNL1        0.1404
     27 C         140.0834  142.6901  165.5229 C.ar    1  UNL1        0.0712
     28 C         141.0415  143.6119  164.8285 C.ar    1  UNL1        0.1390
     29 C         142.4671  143.1942  164.6209 C.ar    1  UNL1        0.0307
     30 C         142.9346  141.8547  165.1077 C.ar    1  UNL1        0.0990
     31 N         141.9766  140.9328  165.8021 N.ar    1  UNL1       -0.2289
     32 C         143.4252  144.1161  163.9264 C.3     1  UNL1        0.0269
     33 C         144.1001  145.2137  164.6945 C.3     1  UNL1        0.0048
     34 C         143.7085  143.9403  162.4639 C.3     1  UNL1        0.0048
     35 O         140.5740  144.9515  164.3417 O.3     1  UNL1       -0.4716
     36 C         139.5646  145.0370  163.2354 C.3     1  UNL1        0.2525
     37 C         139.6794  140.2371  168.1894 C.3     1  UNL1        0.0813
     38 C         139.0308  140.2573  169.5418 C.3     1  UNL1        0.0219
     39 C         140.4778  139.8852  169.4094 C.3     1  UNL1        0.0219
@<TRIPOS>BOND
     1    17    18    1
     2    18    16    1
     3    16    15    1
     4    14    15    1
     5    14    19    1
     6    19    20    1
     7    20    21    1
     8    20    22    1
     9    14    10    1
    10    10    11   am
    11    11    12    2
    12     1    11    1
    13     1     2    1
    14     2     3    1
    15     3     4    1
    16     4     5    1
    17     5    23    1
    18    23    24    2
    19    23    25   am
    20    25    26    1
    21    26    27   ar
    22    27    28   ar
    23    28    35    1
    24    35    36    1
    25    28    29   ar
    26    29    32    1
    27    32    33    1
    28    32    34    1
    29    29    30   ar
    30    30    31   ar
    31    25    37    1
    32    37    38    1
    33    38    39    1
    34     5     6    1
    35     6     7    1
    36     6     1    1
    37    31    26   ar
    38    39    37    1
    39    10    13    1
    40     3     8    1
    41     7     9    1
