@<TRIPOS>MOLECULE
*****
 23 26 0 0 0
SMALL
GASTEIGER

@<TRIPOS>ATOM
      1 O         139.8818  142.8480  164.8683 O.2     1  UNL1       -0.2520
      2 C         139.1189  142.5919  163.6024 C.2     1  UNL1        0.3111
      3 N         138.7962  143.6073  162.5466 N.am    1  UNL1       -0.2606
      4 C         138.0226  142.9184  161.4618 C.3     1  UNL1        0.1169
      5 C         137.8670  141.4771  161.8472 C.3     1  UNL1        0.1212
      6 N         138.5446  141.2753  163.1702 N.am    1  UNL1       -0.2413
      7 C         138.6325  139.9837  163.9279 C.ar    1  UNL1        0.0562
      8 C         139.2902  138.7900  163.3015 C.ar    1  UNL1        0.0150
      9 C         139.3781  137.4983  164.0591 C.ar    1  UNL1        0.0021
     10 C         138.8082  137.4005  165.4432 C.ar    1  UNL1        0.0115
     11 C         138.1504  138.5942  166.0696 C.ar    1  UNL1        0.0589
     12 CL        137.5805  138.4963  167.4536 Cl      1  UNL1       -0.0822
     13 C         138.0626  139.8858  165.3119 C.ar    1  UNL1        0.0263
     14 C         139.1799  145.0572  162.5713 C.3     1  UNL1        0.1123
     15 C         140.4593  145.5055  161.9293 C.3     1  UNL1        0.0938
     16 N         141.7633  144.8938  162.3482 N.3     1  UNL1       -0.2738
     17 C         142.4832  143.9567  161.4244 C.3     1  UNL1        0.0575
     18 C         143.7871  143.3449  161.8433 C.3     1  UNL1        0.0160
     19 C         144.3711  143.6703  163.1860 C.3     1  UNL1        0.0028
     20 C         143.6511  144.6074  164.1099 C.3     1  UNL1        0.0160
     21 C         142.3472  145.2191  163.6910 C.3     1  UNL1        0.0575
     22 C         141.1314  145.5757  162.8882 C.3     1  UNL1        0.0173
     23 C         141.2099  144.8468  161.5795 C.3     1  UNL1        0.0173
@<TRIPOS>BOND
     1     1     2    2
     2     2     3   am
     3     3    14    1
     4    14    15    1
     5    15    16    1
     6    16    17    1
     7    17    18    1
     8    18    19    1
     9    19    20    1
    10    21    20    1
    11    21    22    1
    12    22    23    1
    13     3     4    1
    14     4     5    1
    15     5     6    1
    16     6     7    1
    17     7     8   ar
    18     8     9   ar
    19     9    10   ar
    20    10    11   ar
    21    11    12    1
    22    11    13   ar
    23     6     2   am
    24    13     7   ar
    25    21    16    1
    26    23    17    1
@<TRIPOS>MOLECULE
*****
 23 26 0 0 0
SMALL
GASTEIGER

@<TRIPOS>ATOM
      1 O         141.3613  141.6730  163.5161 O.2     1  UNL1       -0.2520
      2 C         141.8955  140.2770  163.3897 C.2     1  UNL1        0.3111
      3 N         142.9764  139.8282  162.4515 N.am    1  UNL1       -0.2606
      4 C         143.1915  138.3586  162.6614 C.3     1  UNL1        0.1169
      5 C         142.2436  137.8992  163.7293 C.3     1  UNL1        0.1212
      6 N         141.4427  139.0849  164.1795 N.am    1  UNL1       -0.2413
      7 C         140.3761  139.0794  165.2342 C.ar    1  UNL1        0.0562
      8 C         139.1421  138.2470  165.0486 C.ar    1  UNL1        0.0150
      9 C         138.0755  138.2415  166.1033 C.ar    1  UNL1        0.0021
     10 C         138.2429  139.0684  167.3436 C.ar    1  UNL1        0.0115
     11 C         139.4768  139.9008  167.5291 C.ar    1  UNL1        0.0589
     12 CL        139.6442  140.7278  168.7693 Cl      1  UNL1       -0.0822
     13 C         140.5434  139.9063  166.4744 C.ar    1  UNL1        0.0263
     14 C         143.7128  140.6964  161.4749 C.3     1  UNL1        0.1123
     15 C         144.8417  141.5645  161.9460 C.3     1  UNL1        0.0938
     16 N         144.5772  142.6786  162.9151 N.3     1  UNL1       -0.2738
     17 C         144.8760  142.4912  164.3730 C.3     1  UNL1        0.0575
     18 C         144.6115  143.6052  165.3420 C.3     1  UNL1        0.0160
     19 C         144.0481  144.9065  164.8531 C.3     1  UNL1        0.0028
     20 C         143.7493  145.0939  163.3951 C.3     1  UNL1        0.0160
     21 C         144.0138  143.9799  162.4261 C.3     1  UNL1        0.0575
     22 C         144.4192  142.6548  161.8518 C.3     1  UNL1        0.0173
     23 C         144.9170  141.7953  162.9759 C.3     1  UNL1        0.0173
@<TRIPOS>BOND
     1     1     2    2
     2     2     3   am
     3     3    14    1
     4    14    15    1
     5    15    16    1
     6    16    17    1
     7    17    18    1
     8    18    19    1
     9    19    20    1
    10    21    20    1
    11    21    22    1
    12    22    23    1
    13     3     4    1
    14     4     5    1
    15     5     6    1
    16     6     7    1
    17     7     8   ar
    18     8     9   ar
    19     9    10   ar
    20    10    11   ar
    21    11    12    1
    22    11    13   ar
    23     6     2   am
    24    13     7   ar
    25    21    16    1
    26    23    17    1
@<TRIPOS>MOLECULE
*****
 23 26 0 0 0
SMALL
GASTEIGER

@<TRIPOS>ATOM
      1 O         141.4885  142.2337  165.6555 O.2     1  UNL1       -0.2520
      2 C         140.6228  142.5289  164.4666 C.2     1  UNL1        0.3111
      3 N         140.6106  143.8061  163.6802 N.am    1  UNL1       -0.2606
      4 C         139.5975  143.6652  162.5830 C.3     1  UNL1        0.1169
      5 C         138.9836  142.3009  162.6913 C.3     1  UNL1        0.1212
      6 N         139.6173  141.5986  163.8556 N.am    1  UNL1       -0.2413
      7 C         139.3009  140.2099  164.3260 C.ar    1  UNL1        0.0562
      8 C         139.7702  139.0249  163.5351 C.ar    1  UNL1        0.0150
      9 C         139.4539  137.6361  164.0055 C.ar    1  UNL1        0.0021
     10 C         138.6682  137.4324  165.2670 C.ar    1  UNL1        0.0115
     11 C         138.1989  138.6173  166.0579 C.ar    1  UNL1        0.0589
     12 CL        137.4133  138.4135  167.3193 Cl      1  UNL1       -0.0822
     13 C         138.5153  140.0061  165.5874 C.ar    1  UNL1        0.0263
     14 C         141.4620  145.0124  163.9445 C.3     1  UNL1        0.1123
     15 C         142.8013  145.1449  163.2820 C.3     1  UNL1        0.0938
     16 N         143.7639  143.9946  163.2998 N.3     1  UNL1       -0.2738
     17 C         144.4148  143.5811  164.5863 C.3     1  UNL1        0.0575
     18 C         145.3773  142.4309  164.6041 C.3     1  UNL1        0.0160
     19 C         145.6889  141.6941  163.3353 C.3     1  UNL1        0.0028
     20 C         145.0380  142.1075  162.0487 C.3     1  UNL1        0.0160
     21 C         144.0755  143.2578  162.0309 C.3     1  UNL1        0.0575
     22 C         143.2205  144.4095  162.4699 C.3     1  UNL1        0.0173
     23 C         143.4165  144.5961  163.9454 C.3     1  UNL1        0.0173
@<TRIPOS>BOND
     1     1     2    2
     2     2     3   am
     3     3    14    1
     4    14    15    1
     5    15    16    1
     6    16    17    1
     7    17    18    1
     8    18    19    1
     9    19    20    1
    10    21    20    1
    11    21    22    1
    12    22    23    1
    13     3     4    1
    14     4     5    1
    15     5     6    1
    16     6     7    1
    17     7     8   ar
    18     8     9   ar
    19     9    10   ar
    20    10    11   ar
    21    11    12    1
    22    11    13   ar
    23     6     2   am
    24    13     7   ar
    25    21    16    1
    26    23    17    1
@<TRIPOS>MOLECULE
*****
 23 26 0 0 0
SMALL
GASTEIGER

@<TRIPOS>ATOM
      1 O         140.6186  142.6940  165.0136 O.2     1  UNL1       -0.2520
      2 C         139.4315  142.6423  164.0981 C.2     1  UNL1        0.3111
      3 N         138.8658  143.7945  163.3220 N.am    1  UNL1       -0.2606
      4 C         137.6863  143.2936  162.5422 C.3     1  UNL1        0.1169
      5 C         137.5231  141.8318  162.8363 C.3     1  UNL1        0.1212
      6 N         138.6017  141.4293  163.7979 N.am    1  UNL1       -0.2413
      7 C         138.8134  140.0550  164.3606 C.ar    1  UNL1        0.0562
      8 C         138.0324  139.6073  165.5604 C.ar    1  UNL1        0.0150
      9 C         138.2439  138.2331  166.1232 C.ar    1  UNL1        0.0021
     10 C         139.2366  137.3064  165.4859 C.ar    1  UNL1        0.0115
     11 C         140.0176  137.7541  164.2861 C.ar    1  UNL1        0.0589
     12 CL        141.0103  136.8275  163.6489 Cl      1  UNL1       -0.0822
     13 C         139.8060  139.1284  163.7234 C.ar    1  UNL1        0.0263
     14 C         139.3878  145.2007  163.3251 C.3     1  UNL1        0.1123
     15 C         140.4754  145.5991  162.3720 C.3     1  UNL1        0.0938
     16 N         141.8020  144.9003  162.4133 N.3     1  UNL1       -0.2738
     17 C         142.7197  145.1017  163.5826 C.3     1  UNL1        0.0575
     18 C         144.0463  144.4029  163.6240 C.3     1  UNL1        0.0160
     19 C         144.4552  143.5027  162.4961 C.3     1  UNL1        0.0028
     20 C         143.5375  143.3012  161.3268 C.3     1  UNL1        0.0160
     21 C         142.2109  144.0000  161.2854 C.3     1  UNL1        0.0575
     22 C         141.0400  144.8612  161.6559 C.3     1  UNL1        0.0173
     23 C         141.3338  145.4973  162.9823 C.3     1  UNL1        0.0173
@<TRIPOS>BOND
     1     1     2    2
     2     2     3   am
     3     3    14    1
     4    14    15    1
     5    15    16    1
     6    16    17    1
     7    17    18    1
     8    18    19    1
     9    19    20    1
    10    21    20    1
    11    21    22    1
    12    22    23    1
    13     3     4    1
    14     4     5    1
    15     5     6    1
    16     6     7    1
    17     7     8   ar
    18     8     9   ar
    19     9    10   ar
    20    10    11   ar
    21    11    12    1
    22    11    13   ar
    23     6     2   am
    24    13     7   ar
    25    21    16    1
    26    23    17    1
@<TRIPOS>MOLECULE
*****
 23 26 0 0 0
SMALL
GASTEIGER

@<TRIPOS>ATOM
      1 O         141.1242  140.7756  164.7250 O.2     1  UNL1       -0.2520
      2 C         140.0720  140.1159  165.5662 C.2     1  UNL1        0.3111
      3 N         139.0001  139.1903  165.0719 N.am    1  UNL1       -0.2606
      4 C         138.1727  138.7684  166.2498 C.3     1  UNL1        0.1169
      5 C         138.7332  139.4331  167.4720 C.3     1  UNL1        0.1212
      6 N         139.9071  140.2659  167.0496 N.am    1  UNL1       -0.2413
      7 C         140.7653  141.1020  167.9520 C.ar    1  UNL1        0.0562
      8 C         142.1832  140.6964  168.2260 C.ar    1  UNL1        0.0150
      9 C         143.0415  141.5324  169.1284 C.ar    1  UNL1        0.0021
     10 C         142.4818  142.7742  169.7570 C.ar    1  UNL1        0.0115
     11 C         141.0639  143.1797  169.4830 C.ar    1  UNL1        0.0589
     12 CL        140.5042  144.4214  170.1115 Cl      1  UNL1       -0.0822
     13 C         140.2057  142.3437  168.5805 C.ar    1  UNL1        0.0263
     14 C         138.7921  138.7620  163.6495 C.3     1  UNL1        0.1123
     15 C         139.5974  137.6312  163.0814 C.3     1  UNL1        0.0938
     16 N         140.7737  137.9187  162.1961 N.3     1  UNL1       -0.2738
     17 C         140.5560  138.3455  160.7747 C.3     1  UNL1        0.0575
     18 C         141.7323  138.6331  159.8895 C.3     1  UNL1        0.0160
     19 C         143.1262  138.4939  160.4256 C.3     1  UNL1        0.0028
     20 C         143.3439  138.0671  161.8470 C.3     1  UNL1        0.0160
     21 C         142.1677  137.7795  162.7323 C.3     1  UNL1        0.0575
     22 C         140.7615  137.6070  163.2250 C.3     1  UNL1        0.0173
     23 C         139.8309  137.9338  162.0948 C.3     1  UNL1        0.0173
@<TRIPOS>BOND
     1     1     2    2
     2     2     3   am
     3     3    14    1
     4    14    15    1
     5    15    16    1
     6    16    17    1
     7    17    18    1
     8    18    19    1
     9    19    20    1
    10    21    20    1
    11    21    22    1
    12    22    23    1
    13     3     4    1
    14     4     5    1
    15     5     6    1
    16     6     7    1
    17     7     8   ar
    18     8     9   ar
    19     9    10   ar
    20    10    11   ar
    21    11    12    1
    22    11    13   ar
    23     6     2   am
    24    13     7   ar
    25    21    16    1
    26    23    17    1
@<TRIPOS>MOLECULE
*****
 23 26 0 0 0
SMALL
GASTEIGER

@<TRIPOS>ATOM
      1 O         140.8369  141.5458  164.7567 O.2     1  UNL1       -0.2520
      2 C         139.9529  140.6184  165.5368 C.2     1  UNL1        0.3111
      3 N         138.9511  139.6623  164.9604 N.am    1  UNL1       -0.2606
      4 C         138.2946  138.9374  166.0977 C.3     1  UNL1        0.1169
      5 C         138.8906  139.4454  167.3770 C.3     1  UNL1        0.1212
      6 N         139.9155  140.4844  167.0303 N.am    1  UNL1       -0.2413
      7 C         140.7556  141.2541  168.0059 C.ar    1  UNL1        0.0562
      8 C         142.1235  140.7591  168.3718 C.ar    1  UNL1        0.0150
      9 C         142.9637  141.5288  169.3474 C.ar    1  UNL1        0.0021
     10 C         142.4358  142.7936  169.9571 C.ar    1  UNL1        0.0115
     11 C         141.0679  143.2886  169.5913 C.ar    1  UNL1        0.0589
     12 CL        140.5401  144.5534  170.2010 Cl      1  UNL1       -0.0822
     13 C         140.2278  142.5189  168.6157 C.ar    1  UNL1        0.0263
     14 C         138.6574  139.4657  163.5027 C.3     1  UNL1        0.1123
     15 C         137.7707  140.4352  162.7788 C.3     1  UNL1        0.0938
     16 N         138.2160  141.8536  162.5788 N.3     1  UNL1       -0.2738
     17 C         139.3034  142.1665  161.5942 C.3     1  UNL1        0.0575
     18 C         139.7488  143.5848  161.3941 C.3     1  UNL1        0.0160
     19 C         139.1067  144.6902  162.1788 C.3     1  UNL1        0.0028
     20 C         138.0192  144.3773  163.1635 C.3     1  UNL1        0.0160
     21 C         137.5739  142.9590  163.3635 C.3     1  UNL1        0.0575
     22 C         137.4589  141.4687  163.2381 C.3     1  UNL1        0.0173
     23 C         138.4575  141.0111  162.2165 C.3     1  UNL1        0.0173
@<TRIPOS>BOND
     1     1     2    2
     2     2     3   am
     3     3    14    1
     4    14    15    1
     5    15    16    1
     6    16    17    1
     7    17    18    1
     8    18    19    1
     9    19    20    1
    10    21    20    1
    11    21    22    1
    12    22    23    1
    13     3     4    1
    14     4     5    1
    15     5     6    1
    16     6     7    1
    17     7     8   ar
    18     8     9   ar
    19     9    10   ar
    20    10    11   ar
    21    11    12    1
    22    11    13   ar
    23     6     2   am
    24    13     7   ar
    25    21    16    1
    26    23    17    1
@<TRIPOS>MOLECULE
*****
 23 26 0 0 0
SMALL
GASTEIGER

@<TRIPOS>ATOM
      1 O         142.9681  139.1333  166.9669 O.2     1  UNL1       -0.2520
      2 C         141.9425  139.5826  165.9689 C.2     1  UNL1        0.3111
      3 N         141.9708  139.3134  164.4935 N.am    1  UNL1       -0.2606
      4 C         140.7542  139.9444  163.8838 C.3     1  UNL1        0.1169
      5 C         139.9740  140.6037  164.9823 C.3     1  UNL1        0.1212
      6 N         140.7085  140.3800  166.2710 N.am    1  UNL1       -0.2413
      7 C         140.2835  140.8682  167.6242 C.ar    1  UNL1        0.0562
      8 C         139.4656  139.9836  168.5178 C.ar    1  UNL1        0.0150
      9 C         139.0405  140.4716  169.8710 C.ar    1  UNL1        0.0021
     10 C         139.4334  141.8444  170.3306 C.ar    1  UNL1        0.0115
     11 C         140.2513  142.7290  169.4370 C.ar    1  UNL1        0.0589
     12 CL        140.6442  144.1018  169.8965 Cl      1  UNL1       -0.0822
     13 C         140.6763  142.2409  168.0838 C.ar    1  UNL1        0.0263
     14 C         143.0297  138.5476  163.7572 C.3     1  UNL1        0.1123
     15 C         144.3554  139.1879  163.4698 C.3     1  UNL1        0.0938
     16 N         144.4142  140.6085  162.9917 N.3     1  UNL1       -0.2738
     17 C         144.7144  141.7139  163.9602 C.3     1  UNL1        0.0575
     18 C         144.7732  143.1345  163.4821 C.3     1  UNL1        0.0160
     19 C         144.5318  143.4496  162.0356 C.3     1  UNL1        0.0028
     20 C         144.2316  142.3442  161.0672 C.3     1  UNL1        0.0160
     21 C         144.1728  140.9236  161.5452 C.3     1  UNL1        0.0575
     22 C         144.2134  139.7136  162.4307 C.3     1  UNL1        0.0173
     23 C         144.5262  140.1699  163.8250 C.3     1  UNL1        0.0173
@<TRIPOS>BOND
     1     1     2    2
     2     2     3   am
     3     3    14    1
     4    14    15    1
     5    15    16    1
     6    16    17    1
     7    17    18    1
     8    18    19    1
     9    19    20    1
    10    21    20    1
    11    21    22    1
    12    22    23    1
    13     3     4    1
    14     4     5    1
    15     5     6    1
    16     6     7    1
    17     7     8   ar
    18     8     9   ar
    19     9    10   ar
    20    10    11   ar
    21    11    12    1
    22    11    13   ar
    23     6     2   am
    24    13     7   ar
    25    21    16    1
    26    23    17    1
@<TRIPOS>MOLECULE
*****
 23 26 0 0 0
SMALL
GASTEIGER

@<TRIPOS>ATOM
      1 O         143.8333  141.6768  165.4437 O.2     1  UNL1       -0.2520
      2 C         143.2921  140.4012  164.8695 C.2     1  UNL1        0.3111
      3 N         143.6143  139.8362  163.5179 N.am    1  UNL1       -0.2606
      4 C         142.8550  138.5523  163.3592 C.3     1  UNL1        0.1169
      5 C         142.0634  138.3238  164.6127 C.3     1  UNL1        0.1212
      6 N         142.3336  139.4666  165.5461 N.am    1  UNL1       -0.2413
      7 C         141.7481  139.6435  166.9158 C.ar    1  UNL1        0.0562
      8 C         140.2734  139.8651  167.0781 C.ar    1  UNL1        0.0150
      9 C         139.6878  140.0420  168.4477 C.ar    1  UNL1        0.0021
     10 C         140.5770  139.9975  169.6550 C.ar    1  UNL1        0.0115
     11 C         142.0516  139.7759  169.4926 C.ar    1  UNL1        0.0589
     12 CL        142.9407  139.7314  170.6999 Cl      1  UNL1       -0.0822
     13 C         142.6372  139.5990  168.1230 C.ar    1  UNL1        0.0263
     14 C         144.5343  140.4476  162.5032 C.3     1  UNL1        0.1123
     15 C         144.0480  141.5626  161.6255 C.3     1  UNL1        0.0938
     16 N         143.4421  142.7901  162.2389 N.3     1  UNL1       -0.2738
     17 C         141.9511  142.9215  162.3373 C.3     1  UNL1        0.0575
     18 C         141.3452  144.1489  162.9506 C.3     1  UNL1        0.0160
     19 C         142.2303  145.2450  163.4655 C.3     1  UNL1        0.0028
     20 C         143.7213  145.1137  163.3671 C.3     1  UNL1        0.0160
     21 C         144.3272  143.8862  162.7538 C.3     1  UNL1        0.0575
     22 C         144.4796  142.5467  162.0962 C.3     1  UNL1        0.0173
     23 C         143.1077  141.9897  161.8557 C.3     1  UNL1        0.0173
@<TRIPOS>BOND
     1     1     2    2
     2     2     3   am
     3     3    14    1
     4    14    15    1
     5    15    16    1
     6    16    17    1
     7    17    18    1
     8    18    19    1
     9    19    20    1
    10    21    20    1
    11    21    22    1
    12    22    23    1
    13     3     4    1
    14     4     5    1
    15     5     6    1
    16     6     7    1
    17     7     8   ar
    18     8     9   ar
    19     9    10   ar
    20    10    11   ar
    21    11    12    1
    22    11    13   ar
    23     6     2   am
    24    13     7   ar
    25    21    16    1
    26    23    17    1
@<TRIPOS>MOLECULE
*****
 23 26 0 0 0
SMALL
GASTEIGER

@<TRIPOS>ATOM
      1 O         140.9983  141.3435  163.7032 O.2     1  UNL1       -0.2520
      2 C         140.1411  140.1130  163.7342 C.2     1  UNL1        0.3111
      3 N         139.4240  139.5082  162.5637 N.am    1  UNL1       -0.2606
      4 C         138.6902  138.2926  163.0474 C.3     1  UNL1        0.1169
      5 C         138.9537  138.1461  164.5167 C.3     1  UNL1        0.1212
      6 N         139.8504  139.2712  164.9412 N.am    1  UNL1       -0.2413
      7 C         140.3659  139.5122  166.3291 C.ar    1  UNL1        0.0562
      8 C         141.8356  139.4107  166.6115 C.ar    1  UNL1        0.0150
      9 C         142.3511  139.6516  167.9994 C.ar    1  UNL1        0.0021
     10 C         141.3969  139.9942  169.1049 C.ar    1  UNL1        0.0115
     11 C         139.9272  140.0957  168.8226 C.ar    1  UNL1        0.0589
     12 CL        138.9730  140.4382  169.9281 Cl      1  UNL1       -0.0822
     13 C         139.4117  139.8547  167.4347 C.ar    1  UNL1        0.0263
     14 C         139.4384  140.0277  161.1567 C.3     1  UNL1        0.1123
     15 C         138.5258  141.1511  160.7626 C.3     1  UNL1        0.0938
     16 N         138.7084  142.5124  161.3657 N.3     1  UNL1       -0.2738
     17 C         139.7974  143.4144  160.8653 C.3     1  UNL1        0.0575
     18 C         139.9800  144.7757  161.4683 C.3     1  UNL1        0.0160
     19 C         139.0736  145.2349  162.5717 C.3     1  UNL1        0.0028
     20 C         137.9846  144.3328  163.0721 C.3     1  UNL1        0.0160
     21 C         137.8020  142.9716  162.4691 C.3     1  UNL1        0.0575
     22 C         137.9843  141.7560  161.6095 C.3     1  UNL1        0.0173
     23 C         139.1364  142.0116  160.6835 C.3     1  UNL1        0.0173
@<TRIPOS>BOND
     1     1     2    2
     2     2     3   am
     3     3    14    1
     4    14    15    1
     5    15    16    1
     6    16    17    1
     7    17    18    1
     8    18    19    1
     9    19    20    1
    10    21    20    1
    11    21    22    1
    12    22    23    1
    13     3     4    1
    14     4     5    1
    15     5     6    1
    16     6     7    1
    17     7     8   ar
    18     8     9   ar
    19     9    10   ar
    20    10    11   ar
    21    11    12    1
    22    11    13   ar
    23     6     2   am
    24    13     7   ar
    25    21    16    1
    26    23    17    1
