@<TRIPOS>MOLECULE
*****
 51 56 0 0 0
SMALL
GASTEIGER

@<TRIPOS>ATOM
      1 C         140.4569  142.1966  158.7950 C.ar    1  UNL1        0.0375
      2 C         139.5114  142.1576  157.6312 C.ar    1  UNL1        0.1031
      3 N         139.2301  143.4075  156.8512 N.ar    1  UNL1       -0.2121
      4 C         139.8943  144.6966  157.2350 C.ar    1  UNL1        0.2201
      5 N         140.8398  144.7356  158.3988 N.ar    1  UNL1       -0.2163
      6 C         141.1211  143.4855  159.1788 C.ar    1  UNL1        0.0836
      7 C         141.6386  139.8922  159.0029 C.ar    1  UNL1        0.1387
      8 C         141.9198  138.6422  159.7829 C.ar    1  UNL1        0.0369
      9 C         141.3006  138.4466  161.1350 C.ar    1  UNL1        0.0031
     10 C         140.4001  139.5010  161.7071 C.ar    1  UNL1       -0.0001
     11 C         140.1188  140.7509  160.9271 C.ar    1  UNL1        0.0031
     12 C         140.7381  140.9465  159.5750 C.ar    1  UNL1        0.0367
     13 C         139.7808  139.3054  163.0592 C.ar    1  UNL1       -0.0039
     14 C         138.7312  140.2587  163.5485 C.ar    1  UNL1       -0.0003
     15 C         138.1119  140.0631  164.9006 C.ar    1  UNL1        0.0011
     16 C         138.5422  138.9142  165.7635 C.ar    1  UNL1        0.0137
     17 C         139.5918  137.9608  165.2743 C.ar    1  UNL1       -0.0031
     18 C         140.2111  138.1564  163.9221 C.ar    1  UNL1       -0.0218
     19 C         141.2607  137.2029  163.4329 C.3     1  UNL1        0.0310
     20 C         137.9229  138.7186  167.1156 C.2     1  UNL1        0.0729
     21 O         138.5010  139.4130  168.3129 O.co2   1  UNL1       -0.5446
     22 O         136.7255  137.8285  167.2705 O.co2   1  UNL1       -0.5446
     23 C         143.7148  140.4254  157.5348 C.3     1  UNL1        0.2525
     24 O         142.2579  140.0878  157.6508 O.3     1  UNL1       -0.4714
     25 N         139.6131  145.9465  156.4550 N.pl3   1  UNL1       -0.2725
     26 C         139.7090  146.3396  155.0106 C.3     1  UNL1        0.1306
     27 C         139.2153  147.7143  155.3519 C.3     1  UNL1        0.2003
     28 F         138.9340  148.9642  154.5719 F       1  UNL1       -0.2336
     29 C         139.1193  147.3212  156.7963 C.3     1  UNL1        0.1306
     30 C         142.0666  143.5245  160.3427 C.3     1  UNL1        0.1428
     31 N         141.5383  143.4132  161.7422 N.am    1  UNL1       -0.2380
     32 C         140.3846  144.1835  162.3129 C.2     1  UNL1        0.4055
     33 O         139.5567  145.2003  161.5844 O.2     1  UNL1       -0.2262
     34 O         140.2043  143.7584  163.7401 O.3     1  UNL1       -0.4320
     35 C         141.2465  142.7254  164.0514 C.3     1  UNL1        0.2107
     36 C         142.0709  142.5121  162.8166 C.3     1  UNL1        0.1233
     37 C         143.2253  141.5641  162.6801 C.3     1  UNL1        0.0258
     38 C         141.4317  142.0283  165.3665 C.ar    1  UNL1        0.0189
     39 C         140.8265  142.6040  166.6124 C.ar    1  UNL1        0.0031
     40 C         141.0117  141.9068  167.9275 C.ar    1  UNL1        0.0712
     41 C         141.8021  140.6339  167.9968 C.ar    1  UNL1        0.0077
     42 C         142.4073  140.0580  166.7508 C.ar    1  UNL1        0.0712
     43 C         142.2220  140.7553  165.4357 C.ar    1  UNL1        0.0031
     44 C         140.4066  142.4826  169.1734 C.3     1  UNL1        0.4186
     45 F         139.8014  143.0584  170.4193 F       1  UNL1       -0.1659
     46 F         140.7382  141.2227  169.9167 F       1  UNL1       -0.1659
     47 F         140.0749  143.7426  168.4300 F       1  UNL1       -0.1659
     48 C         143.1977  138.7850  166.8201 C.3     1  UNL1        0.4186
     49 F         143.9880  137.5120  166.8894 F       1  UNL1       -0.1659
     50 F         142.9258  138.6964  168.2926 F       1  UNL1       -0.1659
     51 F         143.4695  138.8737  165.3476 F       1  UNL1       -0.1659
@<TRIPOS>UNITY_ATOM_ATTR
21 1
charge -1
@<TRIPOS>BOND
     1    23    24    1
     2    24     7    1
     3     7     8   ar
     4     8     9   ar
     5     9    10   ar
     6    10    13    1
     7    13    14   ar
     8    14    15   ar
     9    15    16   ar
    10    16    20    1
    11    20    21   ar
    12    20    22   ar
    13    16    17   ar
    14    17    18   ar
    15    18    19    1
    16    10    11   ar
    17    11    12   ar
    18    12     1    1
    19     1     2   ar
    20     2     3   ar
    21     3     4   ar
    22     4    25    1
    23    25    26    1
    24    26    27    1
    25    27    28    1
    26    27    29    1
    27     4     5   ar
    28     5     6   ar
    29     6    30    1
    30    30    31    1
    31    31    32   am
    32    32    33    2
    33    32    34    1
    34    34    35    1
    35    35    38    1
    36    38    39   ar
    37    39    40   ar
    38    40    44    1
    39    44    45    1
    40    44    46    1
    41    44    47    1
    42    40    41   ar
    43    41    42   ar
    44    42    48    1
    45    48    49    1
    46    48    50    1
    47    48    51    1
    48    42    43   ar
    49    35    36    1
    50    36    37    1
    51    12     7   ar
    52     6     1   ar
    53    36    31    1
    54    18    13   ar
    55    29    25    1
    56    43    38   ar
@<TRIPOS>MOLECULE
*****
 51 56 0 0 0
SMALL
GASTEIGER

@<TRIPOS>ATOM
      1 C         140.4573  142.1949  158.8005 C.ar    1  UNL1        0.0375
      2 C         139.5122  142.1539  157.6363 C.ar    1  UNL1        0.1031
      3 N         139.2297  143.4029  156.8553 N.ar    1  UNL1       -0.2121
      4 C         139.8924  144.6930  157.2383 C.ar    1  UNL1        0.2201
      5 N         140.8375  144.7340  158.4024 N.ar    1  UNL1       -0.2163
      6 C         141.1199  143.4849  159.1835 C.ar    1  UNL1        0.0836
      7 C         141.6441  139.8934  159.0119 C.ar    1  UNL1        0.1387
      8 C         141.9265  138.6444  159.7930 C.ar    1  UNL1        0.0369
      9 C         141.3045  138.4477  161.1437 C.ar    1  UNL1        0.0031
     10 C         140.4001  139.5001  161.7134 C.ar    1  UNL1       -0.0001
     11 C         140.1177  140.7491  160.9323 C.ar    1  UNL1        0.0031
     12 C         140.7397  140.9458  159.5815 C.ar    1  UNL1        0.0367
     13 C         139.7781  139.3034  163.0641 C.ar    1  UNL1       -0.0039
     14 C         138.7280  140.2567  163.5522 C.ar    1  UNL1       -0.0003
     15 C         138.1060  140.0601  164.9029 C.ar    1  UNL1        0.0011
     16 C         138.5342  138.9101  165.7655 C.ar    1  UNL1        0.0137
     17 C         139.5843  137.9568  165.2774 C.ar    1  UNL1       -0.0031
     18 C         140.2063  138.1535  163.9267 C.ar    1  UNL1       -0.0218
     19 C         141.2566  137.2001  163.4386 C.3     1  UNL1        0.0310
     20 C         137.9122  138.7135  167.1162 C.2     1  UNL1        0.0729
     21 O         136.7172  137.8197  167.2688 O.co2   1  UNL1       -0.5446
     22 O         138.4851  139.4106  168.3144 O.co2   1  UNL1       -0.5446
     23 C         143.7285  140.4036  157.5474 C.3     1  UNL1        0.2525
     24 O         142.2661  140.0901  157.6612 O.3     1  UNL1       -0.4714
     25 N         139.6099  145.9420  156.4572 N.pl3   1  UNL1       -0.2725
     26 C         139.1273  147.3205  156.7992 C.3     1  UNL1        0.1306
     27 C         139.2104  147.7084  155.3526 C.3     1  UNL1        0.2003
     28 F         138.9280  148.9575  154.5715 F       1  UNL1       -0.2336
     29 C         139.6930  146.3300  155.0106 C.3     1  UNL1        0.1306
     30 C         142.0650  143.5259  160.3476 C.3     1  UNL1        0.1428
     31 N         141.5363  143.4164  161.7471 N.am    1  UNL1       -0.2380
     32 C         140.3841  144.1894  162.3172 C.2     1  UNL1        0.4055
     33 O         139.5584  145.2075  161.5880 O.2     1  UNL1       -0.2262
     34 O         140.2026  143.7655  163.7446 O.3     1  UNL1       -0.4320
     35 C         141.2426  142.7306  164.0566 C.3     1  UNL1        0.2107
     36 C         142.0669  142.5149  162.8221 C.3     1  UNL1        0.1233
     37 C         143.2193  141.5645  162.6863 C.3     1  UNL1        0.0258
     38 C         141.4262  142.0338  165.3721 C.ar    1  UNL1        0.0189
     39 C         142.2175  140.7614  165.4430 C.ar    1  UNL1        0.0031
     40 C         142.4010  140.0646  166.7585 C.ar    1  UNL1        0.0712
     41 C         141.7933  140.6401  168.0033 C.ar    1  UNL1        0.0077
     42 C         141.0020  141.9125  167.9325 C.ar    1  UNL1        0.0712
     43 C         140.8185  142.6093  166.6169 C.ar    1  UNL1        0.0031
     44 C         143.1923  138.7923  166.8293 C.3     1  UNL1        0.4186
     45 F         143.9835  137.5199  166.9001 F       1  UNL1       -0.1659
     46 F         143.4724  138.8846  165.3586 F       1  UNL1       -0.1659
     47 F         142.9121  138.6998  168.3001 F       1  UNL1       -0.1659
     48 C         140.3943  142.4880  169.1773 C.3     1  UNL1        0.4186
     49 F         139.7866  143.0634  170.4221 F       1  UNL1       -0.1659
     50 F         140.7243  141.2278  169.9210 F       1  UNL1       -0.1659
     51 F         140.0642  143.7481  168.4336 F       1  UNL1       -0.1659
@<TRIPOS>UNITY_ATOM_ATTR
21 1
charge -1
@<TRIPOS>BOND
     1    23    24    1
     2    24     7    1
     3     7     8   ar
     4     8     9   ar
     5     9    10   ar
     6    10    13    1
     7    13    14   ar
     8    14    15   ar
     9    15    16   ar
    10    16    20    1
    11    20    21   ar
    12    20    22   ar
    13    16    17   ar
    14    17    18   ar
    15    18    19    1
    16    10    11   ar
    17    11    12   ar
    18    12     1    1
    19     1     2   ar
    20     2     3   ar
    21     3     4   ar
    22     4    25    1
    23    25    26    1
    24    26    27    1
    25    27    28    1
    26    27    29    1
    27     4     5   ar
    28     5     6   ar
    29     6    30    1
    30    30    31    1
    31    31    32   am
    32    32    33    2
    33    32    34    1
    34    34    35    1
    35    35    38    1
    36    38    39   ar
    37    39    40   ar
    38    40    44    1
    39    44    45    1
    40    44    46    1
    41    44    47    1
    42    40    41   ar
    43    41    42   ar
    44    42    48    1
    45    48    49    1
    46    48    50    1
    47    48    51    1
    48    42    43   ar
    49    35    36    1
    50    36    37    1
    51    12     7   ar
    52     6     1   ar
    53    36    31    1
    54    18    13   ar
    55    29    25    1
    56    43    38   ar
@<TRIPOS>MOLECULE
*****
 51 56 0 0 0
SMALL
GASTEIGER

@<TRIPOS>ATOM
      1 C         141.9815  142.7028  159.1578 C.ar    1  UNL1        0.0375
      2 C         142.9304  143.5595  158.3732 C.ar    1  UNL1        0.1031
      3 N         142.4017  144.6594  157.5010 N.ar    1  UNL1       -0.2121
      4 C         140.9241  144.9026  157.4134 C.ar    1  UNL1        0.2201
      5 N         139.9752  144.0458  158.1979 N.ar    1  UNL1       -0.2163
      6 C         140.5039  142.9459  159.0702 C.ar    1  UNL1        0.0836
      7 C         142.9858  140.3204  159.4144 C.ar    1  UNL1        0.1387
      8 C         143.5145  139.2206  160.2866 C.ar    1  UNL1        0.0369
      9 C         143.5675  139.4032  161.7745 C.ar    1  UNL1        0.0031
     10 C         143.0918  140.6856  162.3902 C.ar    1  UNL1       -0.0001
     11 C         142.5632  141.7854  161.5180 C.ar    1  UNL1        0.0031
     12 C         142.5102  141.6029  160.0301 C.ar    1  UNL1        0.0367
     13 C         143.1448  140.8682  163.8781 C.ar    1  UNL1       -0.0039
     14 C         143.6030  142.1736  164.4577 C.ar    1  UNL1       -0.0003
     15 C         143.6560  142.3562  165.9456 C.ar    1  UNL1        0.0011
     16 C         143.2508  141.2334  166.8539 C.ar    1  UNL1        0.0137
     17 C         142.7926  139.9280  166.2743 C.ar    1  UNL1       -0.0031
     18 C         142.7396  139.7454  164.7864 C.ar    1  UNL1       -0.0218
     19 C         142.2813  138.4399  164.2068 C.3     1  UNL1        0.0310
     20 C         143.3038  141.4160  168.3418 C.2     1  UNL1        0.0729
     21 O         143.5431  142.7783  168.9222 O.co2   1  UNL1       -0.5446
     22 O         143.1176  140.2363  169.2493 O.co2   1  UNL1       -0.5446
     23 C         144.1683  140.3434  157.1012 C.3     1  UNL1        0.2525
     24 O         142.9328  140.1378  157.9265 O.3     1  UNL1       -0.4714
     25 N         140.3955  146.0024  156.5412 N.pl3   1  UNL1       -0.2725
     26 C         140.7101  146.5085  155.1646 C.3     1  UNL1        0.1306
     27 C         139.6479  147.5579  155.3076 C.3     1  UNL1        0.2003
     28 F         139.1193  148.6578  154.4354 F       1  UNL1       -0.2336
     29 C         139.3333  147.0518  156.6842 C.3     1  UNL1        0.1306
     30 C         139.5550  142.0892  159.8548 C.3     1  UNL1        0.1428
     31 N         139.4008  142.2996  161.3319 N.am    1  UNL1       -0.2380
     32 C         139.2234  143.6204  162.0205 C.2     1  UNL1        0.4055
     33 O         139.1690  144.9626  161.3528 O.2     1  UNL1       -0.2262
     34 O         139.1098  143.3634  163.4940 O.3     1  UNL1       -0.4320
     35 C         139.2171  141.8838  163.7160 C.3     1  UNL1        0.2107
     36 C         139.3969  141.2264  162.3798 C.3     1  UNL1        0.1233
     37 C         139.5465  139.7542  162.1345 C.3     1  UNL1        0.0258
     38 C         139.1553  141.1844  165.0415 C.ar    1  UNL1        0.0189
     39 C         139.6785  141.8629  166.2727 C.ar    1  UNL1        0.0031
     40 C         139.6168  141.1636  167.5982 C.ar    1  UNL1        0.0712
     41 C         139.0318  139.7856  167.6926 C.ar    1  UNL1        0.0077
     42 C         138.5086  139.1069  166.4614 C.ar    1  UNL1        0.0712
     43 C         138.5704  139.8064  165.1359 C.ar    1  UNL1        0.0031
     44 C         140.1400  141.8422  168.8293 C.3     1  UNL1        0.4186
     45 F         140.6632  142.5208  170.0605 F       1  UNL1       -0.1659
     46 F         139.8372  140.6137  169.6351 F       1  UNL1       -0.1659
     47 F         140.4427  143.0707  168.0235 F       1  UNL1       -0.1659
     48 C         137.9237  137.7289  166.5557 C.3     1  UNL1        0.4186
     49 F         137.3388  136.3509  166.6501 F       1  UNL1       -0.1659
     50 F         137.0023  138.1945  167.6439 F       1  UNL1       -0.1659
     51 F         138.8451  137.2632  165.4675 F       1  UNL1       -0.1659
@<TRIPOS>UNITY_ATOM_ATTR
21 1
charge -1
@<TRIPOS>BOND
     1    23    24    1
     2    24     7    1
     3     7     8   ar
     4     8     9   ar
     5     9    10   ar
     6    10    13    1
     7    13    14   ar
     8    14    15   ar
     9    15    16   ar
    10    16    20    1
    11    20    21   ar
    12    20    22   ar
    13    16    17   ar
    14    17    18   ar
    15    18    19    1
    16    10    11   ar
    17    11    12   ar
    18    12     1    1
    19     1     2   ar
    20     2     3   ar
    21     3     4   ar
    22     4    25    1
    23    25    26    1
    24    26    27    1
    25    27    28    1
    26    27    29    1
    27     4     5   ar
    28     5     6   ar
    29     6    30    1
    30    30    31    1
    31    31    32   am
    32    32    33    2
    33    32    34    1
    34    34    35    1
    35    35    38    1
    36    38    39   ar
    37    39    40   ar
    38    40    44    1
    39    44    45    1
    40    44    46    1
    41    44    47    1
    42    40    41   ar
    43    41    42   ar
    44    42    48    1
    45    48    49    1
    46    48    50    1
    47    48    51    1
    48    42    43   ar
    49    35    36    1
    50    36    37    1
    51    12     7   ar
    52     6     1   ar
    53    36    31    1
    54    18    13   ar
    55    29    25    1
    56    43    38   ar
@<TRIPOS>MOLECULE
*****
 51 56 0 0 0
SMALL
GASTEIGER

@<TRIPOS>ATOM
      1 C         139.9233  141.0284  158.3190 C.ar    1  UNL1        0.0375
      2 C         139.4568  139.8200  157.5626 C.ar    1  UNL1        0.1031
      3 N         138.1079  139.8203  156.9067 N.ar    1  UNL1       -0.2121
      4 C         137.2253  141.0291  157.0070 C.ar    1  UNL1        0.2201
      5 N         137.6918  142.2376  157.7634 N.ar    1  UNL1       -0.2163
      6 C         139.0408  142.2372  158.4194 C.ar    1  UNL1        0.0836
      7 C         142.4692  141.5386  158.2289 C.ar    1  UNL1        0.1387
      8 C         143.8181  141.5382  158.8849 C.ar    1  UNL1        0.0369
      9 C         143.9701  141.0273  160.2870 C.ar    1  UNL1        0.0031
     10 C         142.7732  140.5167  161.0331 C.ar    1  UNL1       -0.0001
     11 C         141.4243  140.5171  160.3771 C.ar    1  UNL1        0.0031
     12 C         141.2723  141.0280  158.9750 C.ar    1  UNL1        0.0367
     13 C         142.9252  140.0057  162.4352 C.ar    1  UNL1       -0.0039
     14 C         143.5828  140.8604  163.4777 C.ar    1  UNL1       -0.0003
     15 C         143.7348  140.3494  164.8798 C.ar    1  UNL1        0.0011
     16 C         143.2292  138.9838  165.2393 C.ar    1  UNL1        0.0137
     17 C         142.5716  138.1291  164.1967 C.ar    1  UNL1       -0.0031
     18 C         142.4196  138.6401  162.7947 C.ar    1  UNL1       -0.0218
     19 C         141.7619  137.7853  161.7521 C.3     1  UNL1        0.0310
     20 C         143.3812  138.4728  166.6414 C.2     1  UNL1        0.0729
     21 O         142.5759  139.0793  167.7521 O.co2   1  UNL1       -0.5446
     22 O         144.3384  137.3554  166.9327 O.co2   1  UNL1       -0.5446
     23 C         142.3623  143.5244  156.5571 C.3     1  UNL1        0.2525
     24 O         142.3172  142.0496  156.8269 O.3     1  UNL1       -0.4714
     25 N         135.8764  141.0295  156.3510 N.pl3   1  UNL1       -0.2725
     26 C         135.2660  141.7430  155.1813 C.3     1  UNL1        0.1306
     27 C         133.9687  141.0299  155.4233 C.3     1  UNL1        0.2003
     28 F         132.6198  141.0303  154.7673 F       1  UNL1       -0.2336
     29 C         134.5791  140.3164  156.5930 C.3     1  UNL1        0.1306
     30 C         139.5073  143.4456  159.1757 C.3     1  UNL1        0.1428
     31 N         140.0650  143.2948  160.5601 N.am    1  UNL1       -0.2380
     32 C         141.3326  143.9123  161.0720 C.2     1  UNL1        0.4055
     33 O         142.2650  144.7888  160.2895 O.2     1  UNL1       -0.2262
     34 O         141.5040  143.4992  162.5038 O.3     1  UNL1       -0.4320
     35 C         140.3424  142.6265  162.8767 C.3     1  UNL1        0.2107
     36 C         139.4530  142.5002  161.6754 C.3     1  UNL1        0.1233
     37 C         138.1760  141.7169  161.6023 C.3     1  UNL1        0.0258
     38 C         140.1108  141.9916  164.2158 C.ar    1  UNL1        0.0189
     39 C         139.6002  140.5837  164.3001 C.ar    1  UNL1        0.0031
     40 C         139.3686  139.9488  165.6392 C.ar    1  UNL1        0.0712
     41 C         139.6476  140.7217  166.8940 C.ar    1  UNL1        0.0077
     42 C         140.1582  142.1297  166.8098 C.ar    1  UNL1        0.0712
     43 C         140.3897  142.7646  165.4706 C.ar    1  UNL1        0.0031
     44 C         138.8581  138.5409  165.7235 C.3     1  UNL1        0.4186
     45 F         138.3475  137.1330  165.8077 F       1  UNL1       -0.1659
     46 F         139.2809  138.3026  164.3041 F       1  UNL1       -0.1659
     47 F         138.4353  138.7791  167.1429 F       1  UNL1       -0.1659
     48 C         140.4371  142.9027  168.0647 C.3     1  UNL1        0.4186
     49 F         140.7161  143.6757  169.3195 F       1  UNL1       -0.1659
     50 F         139.7121  144.0866  167.4966 F       1  UNL1       -0.1659
     51 F         141.1621  141.7188  168.6328 F       1  UNL1       -0.1659
@<TRIPOS>UNITY_ATOM_ATTR
21 1
charge -1
@<TRIPOS>BOND
     1    23    24    1
     2    24     7    1
     3     7     8   ar
     4     8     9   ar
     5     9    10   ar
     6    10    13    1
     7    13    14   ar
     8    14    15   ar
     9    15    16   ar
    10    16    20    1
    11    20    21   ar
    12    20    22   ar
    13    16    17   ar
    14    17    18   ar
    15    18    19    1
    16    10    11   ar
    17    11    12   ar
    18    12     1    1
    19     1     2   ar
    20     2     3   ar
    21     3     4   ar
    22     4    25    1
    23    25    26    1
    24    26    27    1
    25    27    28    1
    26    27    29    1
    27     4     5   ar
    28     5     6   ar
    29     6    30    1
    30    30    31    1
    31    31    32   am
    32    32    33    2
    33    32    34    1
    34    34    35    1
    35    35    38    1
    36    38    39   ar
    37    39    40   ar
    38    40    44    1
    39    44    45    1
    40    44    46    1
    41    44    47    1
    42    40    41   ar
    43    41    42   ar
    44    42    48    1
    45    48    49    1
    46    48    50    1
    47    48    51    1
    48    42    43   ar
    49    35    36    1
    50    36    37    1
    51    12     7   ar
    52     6     1   ar
    53    36    31    1
    54    18    13   ar
    55    29    25    1
    56    43    38   ar
@<TRIPOS>MOLECULE
*****
 51 56 0 0 0
SMALL
GASTEIGER

@<TRIPOS>ATOM
      1 C         142.6022  141.4905  159.0935 C.ar    1  UNL1        0.0375
      2 C         143.6951  142.1942  158.3449 C.ar    1  UNL1        0.1031
      3 N         143.3520  143.2063  157.2924 N.ar    1  UNL1       -0.2121
      4 C         141.9158  143.5148  156.9884 C.ar    1  UNL1        0.2201
      5 N         140.8229  142.8112  157.7370 N.ar    1  UNL1       -0.2163
      6 C         141.1661  141.7990  158.7896 C.ar    1  UNL1        0.0836
      7 C         143.3189  139.0809  159.7493 C.ar    1  UNL1        0.1387
      8 C         143.6621  138.0688  160.8018 C.ar    1  UNL1        0.0369
      9 C         143.6317  138.4542  162.2511 C.ar    1  UNL1        0.0031
     10 C         143.2582  139.8517  162.6479 C.ar    1  UNL1       -0.0001
     11 C         142.9150  140.8638  161.5954 C.ar    1  UNL1        0.0031
     12 C         142.9454  140.4784  160.1461 C.ar    1  UNL1        0.0367
     13 C         143.2278  140.2371  164.0972 C.ar    1  UNL1       -0.0039
     14 C         143.7284  141.5846  164.5256 C.ar    1  UNL1       -0.0003
     15 C         143.6981  141.9700  165.9749 C.ar    1  UNL1        0.0011
     16 C         143.1671  141.0079  166.9959 C.ar    1  UNL1        0.0137
     17 C         142.6665  139.6604  166.5675 C.ar    1  UNL1       -0.0031
     18 C         142.6969  139.2750  165.1182 C.ar    1  UNL1       -0.0218
     19 C         142.1962  137.9274  164.6898 C.3     1  UNL1        0.0310
     20 C         143.1368  141.3933  168.4452 C.2     1  UNL1        0.0729
     21 O         143.4617  142.7993  168.8544 O.co2   1  UNL1       -0.5446
     22 O         142.7814  140.3727  169.4854 O.co2   1  UNL1       -0.5446
     23 C         142.1114  138.1665  157.6385 C.3     1  UNL1        0.2525
     24 O         143.3493  138.6955  158.2999 O.3     1  UNL1       -0.4714
     25 N         141.5727  144.5269  155.9359 N.pl3   1  UNL1       -0.2725
     26 C         142.3140  145.1709  154.8019 C.3     1  UNL1        0.1306
     27 C         141.0875  145.9583  154.4474 C.3     1  UNL1        0.2003
     28 F         140.7443  146.9704  153.3949 F       1  UNL1       -0.2336
     29 C         140.3462  145.3143  155.5813 C.3     1  UNL1        0.1306
     30 C         140.0731  141.0954  159.5381 C.3     1  UNL1        0.1428
     31 N         139.7621  141.4849  160.9530 N.am    1  UNL1       -0.2380
     32 C         139.4403  142.8680  161.4362 C.2     1  UNL1        0.4055
     33 O         139.3731  144.1044  160.5896 O.2     1  UNL1       -0.2262
     34 O         139.1976  142.7976  162.9148 O.3     1  UNL1       -0.4320
     35 C         139.3695  141.3710  163.3453 C.3     1  UNL1        0.2107
     36 C         139.7183  140.5597  162.1328 C.3     1  UNL1        0.1233
     37 C         139.9778  139.0826  162.1050 C.3     1  UNL1        0.0258
     38 C         139.2188  140.8475  164.7429 C.ar    1  UNL1        0.0189
     39 C         138.6232  139.4907  164.9755 C.ar    1  UNL1        0.0031
     40 C         138.4726  138.9672  166.3731 C.ar    1  UNL1        0.0712
     41 C         138.9176  139.8007  167.5381 C.ar    1  UNL1        0.0077
     42 C         139.5133  141.1576  167.3056 C.ar    1  UNL1        0.0712
     43 C         139.6638  141.6810  165.9079 C.ar    1  UNL1        0.0031
     44 C         137.8770  137.6104  166.6057 C.3     1  UNL1        0.4186
     45 F         137.2814  136.2535  166.8382 F       1  UNL1       -0.1659
     46 F         138.7402  137.0449  165.5170 F       1  UNL1       -0.1659
     47 F         137.0138  138.1759  167.6944 F       1  UNL1       -0.1659
     48 C         139.9583  141.9911  168.4706 C.3     1  UNL1        0.4186
     49 F         140.4033  142.8245  169.6357 F       1  UNL1       -0.1659
     50 F         140.3640  143.0877  167.5311 F       1  UNL1       -0.1659
     51 F         139.5525  140.8944  169.4101 F       1  UNL1       -0.1659
@<TRIPOS>UNITY_ATOM_ATTR
21 1
charge -1
@<TRIPOS>BOND
     1    23    24    1
     2    24     7    1
     3     7     8   ar
     4     8     9   ar
     5     9    10   ar
     6    10    13    1
     7    13    14   ar
     8    14    15   ar
     9    15    16   ar
    10    16    20    1
    11    20    21   ar
    12    20    22   ar
    13    16    17   ar
    14    17    18   ar
    15    18    19    1
    16    10    11   ar
    17    11    12   ar
    18    12     1    1
    19     1     2   ar
    20     2     3   ar
    21     3     4   ar
    22     4    25    1
    23    25    26    1
    24    26    27    1
    25    27    28    1
    26    27    29    1
    27     4     5   ar
    28     5     6   ar
    29     6    30    1
    30    30    31    1
    31    31    32   am
    32    32    33    2
    33    32    34    1
    34    34    35    1
    35    35    38    1
    36    38    39   ar
    37    39    40   ar
    38    40    44    1
    39    44    45    1
    40    44    46    1
    41    44    47    1
    42    40    41   ar
    43    41    42   ar
    44    42    48    1
    45    48    49    1
    46    48    50    1
    47    48    51    1
    48    42    43   ar
    49    35    36    1
    50    36    37    1
    51    12     7   ar
    52     6     1   ar
    53    36    31    1
    54    18    13   ar
    55    29    25    1
    56    43    38   ar
@<TRIPOS>MOLECULE
*****
 51 56 0 0 0
SMALL
GASTEIGER

@<TRIPOS>ATOM
      1 C         140.7742  141.9715  158.1991 C.ar    1  UNL1        0.0375
      2 C         141.6519  142.6556  157.1933 C.ar    1  UNL1        0.1031
      3 N         141.2531  143.9889  156.6337 N.ar    1  UNL1       -0.2121
      4 C         139.9765  144.6382  157.0798 C.ar    1  UNL1        0.2201
      5 N         139.0988  143.9540  158.0856 N.ar    1  UNL1       -0.2163
      6 C         139.4977  142.6206  158.6452 C.ar    1  UNL1        0.0836
      7 C         141.1953  139.4287  157.8716 C.ar    1  UNL1        0.1387
      8 C         141.5942  138.0954  158.4312 C.ar    1  UNL1        0.0369
      9 C         141.9707  137.9715  159.8779 C.ar    1  UNL1        0.0031
     10 C         141.9484  139.1809  160.7649 C.ar    1  UNL1       -0.0001
     11 C         141.5496  140.5142  160.2053 C.ar    1  UNL1        0.0031
     12 C         141.1730  140.6381  158.7587 C.ar    1  UNL1        0.0367
     13 C         142.3250  139.0569  162.2116 C.ar    1  UNL1       -0.0039
     14 C         141.4538  138.2744  163.1490 C.ar    1  UNL1       -0.0003
     15 C         141.8304  138.1504  164.5956 C.ar    1  UNL1        0.0011
     16 C         143.0781  138.8091  165.1050 C.ar    1  UNL1        0.0137
     17 C         143.9492  139.5916  164.1676 C.ar    1  UNL1       -0.0031
     18 C         143.5726  139.7156  162.7209 C.ar    1  UNL1       -0.0218
     19 C         144.4439  140.4982  161.7836 C.3     1  UNL1        0.0310
     20 C         143.4546  138.6851  166.5516 C.2     1  UNL1        0.0729
     21 O         144.3890  137.5979  166.9929 O.co2   1  UNL1       -0.5446
     22 O         142.8968  139.6485  167.5570 O.co2   1  UNL1       -0.5446
     23 C         139.9420  138.5164  155.7867 C.3     1  UNL1        0.2525
     24 O         140.8188  139.5527  156.4249 O.3     1  UNL1       -0.4714
     25 N         139.5777  145.9715  156.5202 N.pl3   1  UNL1       -0.2725
     26 C         139.1853  147.2943  157.1086 C.3     1  UNL1        0.1306
     27 C         139.0137  147.8571  155.7288 C.3     1  UNL1        0.2003
     28 F         138.6149  149.1904  155.1692 F       1  UNL1       -0.2336
     29 C         139.4062  146.5343  155.1405 C.3     1  UNL1        0.1306
     30 C         138.6200  141.9365  159.6510 C.3     1  UNL1        0.1428
     31 N         138.8374  142.1685  161.1170 N.am    1  UNL1       -0.2380
     32 C         139.1470  143.4855  161.7648 C.2     1  UNL1        0.4055
     33 O         139.2937  144.8017  161.0604 O.2     1  UNL1       -0.2262
     34 O         139.2843  143.2552  163.2407 O.3     1  UNL1       -0.4320
     35 C         139.0594  141.7958  163.5050 C.3     1  UNL1        0.2107
     36 C         138.7832  141.1242  162.1925 C.3     1  UNL1        0.1233
     37 C         138.5022  139.6647  161.9908 C.3     1  UNL1        0.0258
     38 C         139.1031  141.1258  164.8462 C.ar    1  UNL1        0.0189
     39 C         139.7771  141.8040  166.0019 C.ar    1  UNL1        0.0031
     40 C         139.8207  141.1340  167.3432 C.ar    1  UNL1        0.0712
     41 C         139.1904  139.7856  167.5288 C.ar    1  UNL1        0.0077
     42 C         138.5164  139.1072  166.3731 C.ar    1  UNL1        0.0712
     43 C         138.4727  139.7774  165.0318 C.ar    1  UNL1        0.0031
     44 C         140.4947  141.8123  168.4988 C.3     1  UNL1        0.4186
     45 F         141.1688  142.4906  169.6545 F       1  UNL1       -0.1659
     46 F         141.1615  142.7646  167.5510 F       1  UNL1       -0.1659
     47 F         139.8280  140.8599  169.4468 F       1  UNL1       -0.1659
     48 C         137.8860  137.7588  166.5587 C.3     1  UNL1        0.4186
     49 F         137.2557  136.4104  166.7444 F       1  UNL1       -0.1659
     50 F         137.0660  138.2983  167.6930 F       1  UNL1       -0.1659
     51 F         138.7060  137.2193  165.4245 F       1  UNL1       -0.1659
@<TRIPOS>UNITY_ATOM_ATTR
21 1
charge -1
@<TRIPOS>BOND
     1    23    24    1
     2    24     7    1
     3     7     8   ar
     4     8     9   ar
     5     9    10   ar
     6    10    13    1
     7    13    14   ar
     8    14    15   ar
     9    15    16   ar
    10    16    20    1
    11    20    21   ar
    12    20    22   ar
    13    16    17   ar
    14    17    18   ar
    15    18    19    1
    16    10    11   ar
    17    11    12   ar
    18    12     1    1
    19     1     2   ar
    20     2     3   ar
    21     3     4   ar
    22     4    25    1
    23    25    26    1
    24    26    27    1
    25    27    28    1
    26    27    29    1
    27     4     5   ar
    28     5     6   ar
    29     6    30    1
    30    30    31    1
    31    31    32   am
    32    32    33    2
    33    32    34    1
    34    34    35    1
    35    35    38    1
    36    38    39   ar
    37    39    40   ar
    38    40    44    1
    39    44    45    1
    40    44    46    1
    41    44    47    1
    42    40    41   ar
    43    41    42   ar
    44    42    48    1
    45    48    49    1
    46    48    50    1
    47    48    51    1
    48    42    43   ar
    49    35    36    1
    50    36    37    1
    51    12     7   ar
    52     6     1   ar
    53    36    31    1
    54    18    13   ar
    55    29    25    1
    56    43    38   ar
@<TRIPOS>MOLECULE
*****
 51 56 0 0 0
SMALL
GASTEIGER

@<TRIPOS>ATOM
      1 C         140.0486  141.0438  158.5274 C.ar    1  UNL1        0.0375
      2 C         139.6224  139.8341  157.7496 C.ar    1  UNL1        0.1031
      3 N         138.2775  139.8046  157.0860 N.ar    1  UNL1       -0.2121
      4 C         137.3587  140.9848  157.2004 C.ar    1  UNL1        0.2201
      5 N         137.7848  142.1944  157.9782 N.ar    1  UNL1       -0.2163
      6 C         139.1298  142.2239  158.6418 C.ar    1  UNL1        0.0836
      7 C         142.5749  141.6472  158.4664 C.ar    1  UNL1        0.1387
      8 C         143.9198  141.6767  159.1300 C.ar    1  UNL1        0.0369
      9 C         144.0833  141.1322  160.5181 C.ar    1  UNL1        0.0031
     10 C         142.9020  140.5582  161.2426 C.ar    1  UNL1       -0.0001
     11 C         141.5571  140.5287  160.5790 C.ar    1  UNL1        0.0031
     12 C         141.3936  141.0733  159.1910 C.ar    1  UNL1        0.0367
     13 C         143.0656  140.0137  162.6307 C.ar    1  UNL1       -0.0039
     14 C         143.7970  140.8126  163.6683 C.ar    1  UNL1       -0.0003
     15 C         143.9605  140.2681  165.0564 C.ar    1  UNL1        0.0011
     16 C         143.3928  138.9247  165.4068 C.ar    1  UNL1        0.0137
     17 C         142.6614  138.1258  164.3691 C.ar    1  UNL1       -0.0031
     18 C         142.4978  138.6703  162.9810 C.ar    1  UNL1       -0.0218
     19 C         141.7664  137.8713  161.9433 C.3     1  UNL1        0.0310
     20 C         143.5563  138.3801  166.7949 C.2     1  UNL1        0.0729
     21 O         144.3911  137.1557  167.0266 O.co2   1  UNL1       -0.5446
     22 O         142.8851  139.0601  167.9512 O.co2   1  UNL1       -0.5446
     23 C         142.6242  143.6532  156.8161 C.3     1  UNL1        0.2525
     24 O         142.4113  142.1918  157.0784 O.3     1  UNL1       -0.4714
     25 N         136.0138  140.9552  156.5368 N.pl3   1  UNL1       -0.2725
     26 C         134.7323  140.2111  156.7696 C.3     1  UNL1        0.1306
     27 C         134.1117  140.9135  155.5985 C.3     1  UNL1        0.2003
     28 F         132.7668  140.8839  154.9349 F       1  UNL1       -0.2336
     29 C         135.3932  141.6576  155.3657 C.3     1  UNL1        0.1306
     30 C         139.5560  143.4336  159.4196 C.3     1  UNL1        0.1428
     31 N         140.1613  143.2738  160.7828 N.am    1  UNL1       -0.2380
     32 C         141.4457  143.8883  161.2546 C.2     1  UNL1        0.4055
     33 O         142.3503  144.7705  160.4463 O.2     1  UNL1       -0.2262
     34 O         141.6667  143.4657  162.6769 O.3     1  UNL1       -0.4320
     35 C         140.5189  142.5901  163.0839 C.3     1  UNL1        0.2107
     36 C         139.5885  142.4714  161.9133 C.3     1  UNL1        0.1233
     37 C         138.3098  141.6880  161.8792 C.3     1  UNL1        0.0258
     38 C         140.3339  141.9461  164.4259 C.ar    1  UNL1        0.0189
     39 C         140.8810  142.6065  165.6566 C.ar    1  UNL1        0.0031
     40 C         140.6960  141.9625  166.9986 C.ar    1  UNL1        0.0712
     41 C         139.9639  140.6581  167.1100 C.ar    1  UNL1        0.0077
     42 C         139.4167  139.9976  165.8793 C.ar    1  UNL1        0.0712
     43 C         139.6017  140.6417  164.5373 C.ar    1  UNL1        0.0031
     44 C         141.2432  142.6230  168.2292 C.3     1  UNL1        0.4186
     45 F         141.7903  143.2834  169.4598 F       1  UNL1       -0.1659
     46 F         142.6261  142.1820  167.8509 F       1  UNL1       -0.1659
     47 F         139.8602  143.0639  168.6074 F       1  UNL1       -0.1659
     48 C         138.6846  138.6932  165.9908 C.3     1  UNL1        0.4186
     49 F         137.9524  137.3887  166.1022 F       1  UNL1       -0.1659
     50 F         137.9152  139.2252  167.1634 F       1  UNL1       -0.1659
     51 F         139.4540  138.1612  164.8182 F       1  UNL1       -0.1659
@<TRIPOS>UNITY_ATOM_ATTR
21 1
charge -1
@<TRIPOS>BOND
     1    23    24    1
     2    24     7    1
     3     7     8   ar
     4     8     9   ar
     5     9    10   ar
     6    10    13    1
     7    13    14   ar
     8    14    15   ar
     9    15    16   ar
    10    16    20    1
    11    20    21   ar
    12    20    22   ar
    13    16    17   ar
    14    17    18   ar
    15    18    19    1
    16    10    11   ar
    17    11    12   ar
    18    12     1    1
    19     1     2   ar
    20     2     3   ar
    21     3     4   ar
    22     4    25    1
    23    25    26    1
    24    26    27    1
    25    27    28    1
    26    27    29    1
    27     4     5   ar
    28     5     6   ar
    29     6    30    1
    30    30    31    1
    31    31    32   am
    32    32    33    2
    33    32    34    1
    34    34    35    1
    35    35    38    1
    36    38    39   ar
    37    39    40   ar
    38    40    44    1
    39    44    45    1
    40    44    46    1
    41    44    47    1
    42    40    41   ar
    43    41    42   ar
    44    42    48    1
    45    48    49    1
    46    48    50    1
    47    48    51    1
    48    42    43   ar
    49    35    36    1
    50    36    37    1
    51    12     7   ar
    52     6     1   ar
    53    36    31    1
    54    18    13   ar
    55    29    25    1
    56    43    38   ar
@<TRIPOS>MOLECULE
*****
 51 56 0 0 0
SMALL
GASTEIGER

@<TRIPOS>ATOM
      1 C         142.0020  141.7486  158.6940 C.ar    1  UNL1        0.0375
      2 C         142.5452  140.5955  157.9033 C.ar    1  UNL1        0.1031
      3 N         143.9212  140.6739  157.3115 N.ar    1  UNL1       -0.2121
      4 C         144.7542  141.9054  157.5105 C.ar    1  UNL1        0.2201
      5 N         144.2110  143.0585  158.3013 N.ar    1  UNL1       -0.2163
      6 C         142.8349  142.9801  158.8930 C.ar    1  UNL1        0.0836
      7 C         139.4549  142.2370  158.5390 C.ar    1  UNL1        0.1387
      8 C         138.0788  142.1585  159.1307 C.ar    1  UNL1        0.0369
      9 C         137.8736  141.5133  160.4692 C.ar    1  UNL1        0.0031
     10 C         139.0446  140.9466  161.2160 C.ar    1  UNL1       -0.0001
     11 C         140.4206  141.0250  160.6242 C.ar    1  UNL1        0.0031
     12 C         140.6258  141.6702  159.2857 C.ar    1  UNL1        0.0367
     13 C         138.8394  140.3013  162.5545 C.ar    1  UNL1       -0.0039
     14 C         138.3273  141.1126  163.7076 C.ar    1  UNL1       -0.0003
     15 C         138.1221  140.4674  165.0461 C.ar    1  UNL1        0.0011
     16 C         138.4290  139.0109  165.2315 C.ar    1  UNL1        0.0137
     17 C         138.9411  138.1997  164.0785 C.ar    1  UNL1       -0.0031
     18 C         139.1463  138.8449  162.7400 C.ar    1  UNL1       -0.0218
     19 C         139.6584  138.0335  161.5869 C.3     1  UNL1        0.0310
     20 C         138.2239  138.3657  166.5700 C.2     1  UNL1        0.0729
     21 O         137.6840  136.9688  166.6544 O.co2   1  UNL1       -0.5446
     22 O         138.5586  139.1174  167.8242 O.co2   1  UNL1       -0.5446
     23 C         139.6559  144.3773  157.0800 C.3     1  UNL1        0.2525
     24 O         139.6601  142.8822  157.2005 O.3     1  UNL1       -0.4714
     25 N         146.1303  141.9838  156.9188 N.pl3   1  UNL1       -0.2725
     26 C         146.8330  141.3136  155.7755 C.3     1  UNL1        0.1306
     27 C         148.0764  142.0946  156.0819 C.3     1  UNL1        0.2003
     28 F         149.4525  142.1730  155.4902 F       1  UNL1       -0.2336
     29 C         147.3738  142.7648  157.2252 C.3     1  UNL1        0.1306
     30 C         142.2917  144.1332  159.6837 C.3     1  UNL1        0.1428
     31 N         141.6581  143.8927  161.0219 N.am    1  UNL1       -0.2380
     32 C         140.3437  144.4459  161.4872 C.2     1  UNL1        0.4055
     33 O         139.4322  145.3366  160.6961 O.2     1  UNL1       -0.2262
     34 O         140.1008  143.9519  162.8827 O.3     1  UNL1       -0.4320
     35 C         141.2652  143.0934  163.2797 C.3     1  UNL1        0.2107
     36 C         142.2275  143.0569  162.1297 C.3     1  UNL1        0.1233
     37 C         143.5306  142.3149  162.0937 C.3     1  UNL1        0.0258
     38 C         141.4369  142.3944  164.5955 C.ar    1  UNL1        0.0189
     39 C         140.9676  143.0503  165.8603 C.ar    1  UNL1        0.0031
     40 C         141.1394  142.3512  167.1762 C.ar    1  UNL1        0.0712
     41 C         141.7804  140.9961  167.2275 C.ar    1  UNL1        0.0077
     42 C         142.2497  140.3400  165.9628 C.ar    1  UNL1        0.0712
     43 C         142.0779  141.0392  164.6469 C.ar    1  UNL1        0.0031
     44 C         140.6701  143.0073  168.4408 C.3     1  UNL1        0.4186
     45 F         140.2008  143.6633  169.7055 F       1  UNL1       -0.1659
     46 F         139.7171  143.8525  167.6488 F       1  UNL1       -0.1659
     47 F         141.6231  142.1620  169.2330 F       1  UNL1       -0.1659
     48 C         142.8907  138.9849  166.0141 C.3     1  UNL1        0.4186
     49 F         143.5318  137.6297  166.0654 F       1  UNL1       -0.1659
     50 F         142.8548  138.9112  164.5163 F       1  UNL1       -0.1659
     51 F         142.9267  139.0586  167.5118 F       1  UNL1       -0.1659
@<TRIPOS>UNITY_ATOM_ATTR
21 1
charge -1
@<TRIPOS>BOND
     1    23    24    1
     2    24     7    1
     3     7     8   ar
     4     8     9   ar
     5     9    10   ar
     6    10    13    1
     7    13    14   ar
     8    14    15   ar
     9    15    16   ar
    10    16    20    1
    11    20    21   ar
    12    20    22   ar
    13    16    17   ar
    14    17    18   ar
    15    18    19    1
    16    10    11   ar
    17    11    12   ar
    18    12     1    1
    19     1     2   ar
    20     2     3   ar
    21     3     4   ar
    22     4    25    1
    23    25    26    1
    24    26    27    1
    25    27    28    1
    26    27    29    1
    27     4     5   ar
    28     5     6   ar
    29     6    30    1
    30    30    31    1
    31    31    32   am
    32    32    33    2
    33    32    34    1
    34    34    35    1
    35    35    38    1
    36    38    39   ar
    37    39    40   ar
    38    40    44    1
    39    44    45    1
    40    44    46    1
    41    44    47    1
    42    40    41   ar
    43    41    42   ar
    44    42    48    1
    45    48    49    1
    46    48    50    1
    47    48    51    1
    48    42    43   ar
    49    35    36    1
    50    36    37    1
    51    12     7   ar
    52     6     1   ar
    53    36    31    1
    54    18    13   ar
    55    29    25    1
    56    43    38   ar
@<TRIPOS>MOLECULE
*****
 51 56 0 0 0
SMALL
GASTEIGER

@<TRIPOS>ATOM
      1 C         140.6224  138.9910  158.2477 C.ar    1  UNL1        0.0375
      2 C         139.5602  138.2376  157.5033 C.ar    1  UNL1        0.1031
      3 N         139.9460  137.1805  156.5114 N.ar    1  UNL1       -0.2121
      4 C         141.3940  136.8769  156.2639 C.ar    1  UNL1        0.2201
      5 N         142.4562  137.6303  157.0083 N.ar    1  UNL1       -0.2163
      6 C         142.0703  138.6874  158.0002 C.ar    1  UNL1        0.0836
      7 C         140.1245  141.4793  158.8050 C.ar    1  UNL1        0.1387
      8 C         139.7387  142.5363  159.7969 C.ar    1  UNL1        0.0369
      9 C         139.4650  142.1620  161.2234 C.ar    1  UNL1        0.0031
     10 C         139.5771  140.7308  161.6580 C.ar    1  UNL1       -0.0001
     11 C         139.9629  139.6738  160.6661 C.ar    1  UNL1        0.0031
     12 C         140.2366  140.0481  159.2396 C.ar    1  UNL1        0.0367
     13 C         139.3034  140.3566  163.0846 C.ar    1  UNL1       -0.0039
     14 C         138.7362  139.0067  163.4102 C.ar    1  UNL1       -0.0003
     15 C         138.4625  138.6324  164.8368 C.ar    1  UNL1        0.0011
     16 C         138.7559  139.6080  165.9377 C.ar    1  UNL1        0.0137
     17 C         139.3231  140.9579  165.6120 C.ar    1  UNL1       -0.0031
     18 C         139.5968  141.3322  164.1855 C.ar    1  UNL1       -0.0218
     19 C         140.1640  142.6822  163.8598 C.3     1  UNL1        0.0310
     20 C         138.4822  139.2338  167.3642 C.2     1  UNL1        0.0729
     21 O         137.3714  138.2797  167.6894 O.co2   1  UNL1       -0.5446
     22 O         139.3193  139.8136  168.4656 O.co2   1  UNL1       -0.5446
     23 C         141.6661  142.5712  157.0213 C.3     1  UNL1        0.2525
     24 O         140.3983  141.8536  157.3784 O.3     1  UNL1       -0.4714
     25 N         141.7797  135.8199  155.2720 N.pl3   1  UNL1       -0.2725
     26 C         141.8423  134.3213  155.2894 C.3     1  UNL1        0.1306
     27 C         142.3252  134.3250  153.8693 C.3     1  UNL1        0.2003
     28 F         142.7110  133.2679  152.8774 F       1  UNL1       -0.2336
     29 C         142.2626  135.8236  153.8519 C.3     1  UNL1        0.1306
     30 C         143.1325  139.4409  158.7446 C.3     1  UNL1        0.1428
     31 N         143.2260  139.3273  160.2374 N.am    1  UNL1       -0.2380
     32 C         143.3574  138.0532  161.0181 C.2     1  UNL1        0.4055
     33 O         143.4183  136.6691  160.4432 O.2     1  UNL1       -0.2262
     34 O         143.4172  138.4063  162.4748 O.3     1  UNL1       -0.4320
     35 C         143.3227  139.8986  162.5942 C.3     1  UNL1        0.2107
     36 C         143.2046  140.4678  161.2115 C.3     1  UNL1        0.1233
     37 C         143.0859  141.9220  160.8637 C.3     1  UNL1        0.0258
     38 C         143.3429  140.6838  163.8721 C.ar    1  UNL1        0.0189
     39 C         142.9747  140.0204  165.1660 C.ar    1  UNL1        0.0031
     40 C         142.9949  140.8056  166.4438 C.ar    1  UNL1        0.0712
     41 C         143.3832  142.2544  166.4278 C.ar    1  UNL1        0.0077
     42 C         143.7514  142.9179  165.1339 C.ar    1  UNL1        0.0712
     43 C         143.7312  142.1326  163.8561 C.ar    1  UNL1        0.0031
     44 C         142.6267  140.1421  167.7377 C.3     1  UNL1        0.4186
     45 F         142.2585  139.4786  169.0316 F       1  UNL1       -0.1659
     46 F         143.2135  141.2955  168.4962 F       1  UNL1       -0.1659
     47 F         142.0398  138.9886  166.9793 F       1  UNL1       -0.1659
     48 C         144.1397  144.3667  165.1179 C.3     1  UNL1        0.4186
     49 F         144.5281  145.8155  165.1019 F       1  UNL1       -0.1659
     50 F         143.0209  144.6560  164.1615 F       1  UNL1       -0.1659
     51 F         145.2585  144.0774  166.0743 F       1  UNL1       -0.1659
@<TRIPOS>UNITY_ATOM_ATTR
21 1
charge -1
@<TRIPOS>BOND
     1    23    24    1
     2    24     7    1
     3     7     8   ar
     4     8     9   ar
     5     9    10   ar
     6    10    13    1
     7    13    14   ar
     8    14    15   ar
     9    15    16   ar
    10    16    20    1
    11    20    21   ar
    12    20    22   ar
    13    16    17   ar
    14    17    18   ar
    15    18    19    1
    16    10    11   ar
    17    11    12   ar
    18    12     1    1
    19     1     2   ar
    20     2     3   ar
    21     3     4   ar
    22     4    25    1
    23    25    26    1
    24    26    27    1
    25    27    28    1
    26    27    29    1
    27     4     5   ar
    28     5     6   ar
    29     6    30    1
    30    30    31    1
    31    31    32   am
    32    32    33    2
    33    32    34    1
    34    34    35    1
    35    35    38    1
    36    38    39   ar
    37    39    40   ar
    38    40    44    1
    39    44    45    1
    40    44    46    1
    41    44    47    1
    42    40    41   ar
    43    41    42   ar
    44    42    48    1
    45    48    49    1
    46    48    50    1
    47    48    51    1
    48    42    43   ar
    49    35    36    1
    50    36    37    1
    51    12     7   ar
    52     6     1   ar
    53    36    31    1
    54    18    13   ar
    55    29    25    1
    56    43    38   ar
