@<TRIPOS>MOLECULE
*****
 32 33 0 0 0
SMALL
GASTEIGER

@<TRIPOS>ATOM
      1 C         139.8198  140.5040  168.3669 C.3     1  UNL1        0.0813
      2 C         139.6265  140.3371  169.8450 C.2     1  UNL1        0.2439
      3 O         138.2812  139.9544  170.3869 O.2     1  UNL1       -0.2731
      4 N         140.7784  140.5528  170.7812 N.am    1  UNL1       -0.1970
      5 O         140.5850  140.3858  172.2593 O.3     1  UNL1       -0.2952
      6 H         141.6614  140.8039  170.4255 H       1  UNL1        0.1822
      7 H         139.6643  140.1392  172.4391 H       1  UNL1        0.2414
      8 C         140.7125  141.5908  167.8453 C.3     1  UNL1        0.0433
      9 C         142.1940  141.3700  167.7637 C.3     1  UNL1        0.1380
     10 C         142.8838  141.3951  166.4320 C.ar    1  UNL1        0.0047
     11 C         142.8408  140.1883  165.5423 C.ar    1  UNL1        0.0004
     12 C         143.5307  140.2134  164.2105 C.ar    1  UNL1        0.0294
     13 C         144.2635  141.4454  163.7686 C.ar    1  UNL1        0.1401
     14 F         144.9533  141.4705  162.4369 F       1  UNL1       -0.2042
     15 C         144.3064  142.6522  164.6584 C.ar    1  UNL1        0.0294
     16 C         143.6166  142.6271  165.9901 C.ar    1  UNL1        0.0004
     17 C         143.6970  142.2602  169.6868 C.3     1  UNL1        0.1745
     18 O         142.9855  141.1241  169.0139 O.3     1  UNL1       -0.3492
     19 C         139.1206  139.5842  167.4104 C.3     1  UNL1        0.0093
     20 C         138.8334  140.0364  166.0093 C.3     1  UNL1        0.0019
     21 C         139.3332  139.2338  164.8449 C.3     1  UNL1        0.0171
     22 C         138.7553  139.4549  163.4784 C.3     1  UNL1        0.0688
     23 N         139.6411  139.8995  162.3524 N.3     1  UNL1       -0.2937
     24 H         139.3047  139.4316  161.5108 H       1  UNL1        0.1236
     25 C         139.7570  141.3576  162.0202 C.3     1  UNL1        0.0956
     26 C         139.4172  142.3914  163.0527 C.ar    1  UNL1       -0.0062
     27 C         138.0482  143.0038  163.0785 C.ar    1  UNL1       -0.0006
     28 C         137.7084  144.0375  164.1109 C.ar    1  UNL1        0.0294
     29 C         138.7376  144.4589  165.1174 C.ar    1  UNL1        0.1401
     30 F         138.3977  145.4927  166.1499 F       1  UNL1       -0.2042
     31 C         140.1066  143.8465  165.0916 C.ar    1  UNL1        0.0294
     32 C         140.4464  142.8127  164.0592 C.ar    1  UNL1       -0.0006
@<TRIPOS>BOND
     1    17    18    1
     2    18     9    1
     3     9     8    1
     4     1     8    1
     5     1    19    1
     6    19    20    1
     7    20    21    1
     8    21    22    1
     9    22    23    1
    10    23    25    1
    11    25    26    1
    12    26    27   ar
    13    27    28   ar
    14    28    29   ar
    15    29    30    1
    16    29    31   ar
    17    31    32   ar
    18     1     2    1
    19     2     3    2
    20     2     4   am
    21     4     5    1
    22     9    10    1
    23    10    11   ar
    24    11    12   ar
    25    12    13   ar
    26    13    14    1
    27    13    15   ar
    28    15    16   ar
    29    32    26   ar
    30    16    10   ar
    31    23    24    1
    32     4     6    1
    33     5     7    1
@<TRIPOS>MOLECULE
*****
 32 33 0 0 0
SMALL
GASTEIGER

@<TRIPOS>ATOM
      1 C         141.3087  140.0796  167.8845 C.3     1  UNL1        0.0813
      2 C         141.6368  139.4131  169.1876 C.2     1  UNL1        0.2439
      3 O         140.6420  139.4301  170.3101 O.2     1  UNL1       -0.2731
      4 N         142.9597  138.7296  169.3682 N.am    1  UNL1       -0.1970
      5 O         143.2878  138.0630  170.6713 O.3     1  UNL1       -0.2952
      6 H         143.6126  138.7184  168.6314 H       1  UNL1        0.1822
      7 H         142.5427  138.1660  171.2837 H       1  UNL1        0.2414
      8 C         139.9034  140.5205  167.6005 C.3     1  UNL1        0.0433
      9 C         138.8956  139.5324  167.0923 C.3     1  UNL1        0.1380
     10 C         138.7642  139.2857  165.6186 C.ar    1  UNL1        0.0047
     11 C         139.2876  138.0130  165.0216 C.ar    1  UNL1        0.0004
     12 C         139.1563  137.7663  163.5478 C.ar    1  UNL1        0.0294
     13 C         138.5016  138.7923  162.6711 C.ar    1  UNL1        0.1401
     14 F         138.3702  138.5456  161.1974 F       1  UNL1       -0.2042
     15 C         137.9782  140.0650  163.2680 C.ar    1  UNL1        0.0294
     16 C         138.1095  140.3117  164.7417 C.ar    1  UNL1        0.0004
     17 C         136.9755  137.8424  167.5473 C.3     1  UNL1        0.1745
     18 O         138.0191  138.7911  168.0579 O.3     1  UNL1       -0.3492
     19 C         142.3859  140.3053  166.8653 C.3     1  UNL1        0.0093
     20 C         142.6636  139.2619  165.8240 C.3     1  UNL1        0.0019
     21 C         143.5795  139.5720  164.6773 C.3     1  UNL1        0.0171
     22 C         143.0133  139.8157  163.3099 C.3     1  UNL1        0.0688
     23 N         141.6408  140.4022  163.1600 N.3     1  UNL1       -0.2937
     24 H         141.1716  140.2869  164.0583 H       1  UNL1        0.1236
     25 C         141.4787  141.8410  162.7684 C.3     1  UNL1        0.0956
     26 C         140.5927  142.7429  163.5757 C.ar    1  UNL1       -0.0062
     27 C         140.7772  142.8420  165.0610 C.ar    1  UNL1       -0.0006
     28 C         139.8913  143.7438  165.8683 C.ar    1  UNL1        0.0294
     29 C         138.8207  144.5465  165.1903 C.ar    1  UNL1        0.1401
     30 F         137.9347  145.4484  165.9976 F       1  UNL1       -0.2042
     31 C         138.6362  144.4474  163.7050 C.ar    1  UNL1        0.0294
     32 C         139.5222  143.5456  162.8977 C.ar    1  UNL1       -0.0006
@<TRIPOS>BOND
     1    17    18    1
     2    18     9    1
     3     9     8    1
     4     1     8    1
     5     1    19    1
     6    19    20    1
     7    20    21    1
     8    21    22    1
     9    22    23    1
    10    23    25    1
    11    25    26    1
    12    26    27   ar
    13    27    28   ar
    14    28    29   ar
    15    29    30    1
    16    29    31   ar
    17    31    32   ar
    18     1     2    1
    19     2     3    2
    20     2     4   am
    21     4     5    1
    22     9    10    1
    23    10    11   ar
    24    11    12   ar
    25    12    13   ar
    26    13    14    1
    27    13    15   ar
    28    15    16   ar
    29    32    26   ar
    30    16    10   ar
    31    23    24    1
    32     4     6    1
    33     5     7    1
@<TRIPOS>MOLECULE
*****
 32 33 0 0 0
SMALL
GASTEIGER

@<TRIPOS>ATOM
      1 C         141.9796  142.0473  168.3670 C.3     1  UNL1        0.0813
      2 C         142.1075  142.0366  169.8615 C.2     1  UNL1        0.2439
      3 O         142.1451  143.3299  170.6203 O.2     1  UNL1       -0.2731
      4 N         142.1978  140.7325  170.5971 N.am    1  UNL1       -0.1970
      5 O         142.3257  140.7218  172.0916 O.3     1  UNL1       -0.2952
      6 H         142.1731  139.8837  170.0991 H       1  UNL1        0.1822
      7 H         142.3347  141.6338  172.4219 H       1  UNL1        0.2414
      8 C         140.6562  141.7525  167.7254 C.3     1  UNL1        0.0433
      9 C         140.1212  140.3511  167.7195 C.3     1  UNL1        0.1380
     10 C         140.0476  139.5818  166.4339 C.ar    1  UNL1        0.0047
     11 C         141.2290  139.5503  165.5101 C.ar    1  UNL1        0.0004
     12 C         141.1554  138.7809  164.2245 C.ar    1  UNL1        0.0294
     13 C         139.9005  138.0431  163.8628 C.ar    1  UNL1        0.1401
     14 F         139.8270  137.2738  162.5772 F       1  UNL1       -0.2042
     15 C         138.7192  138.0746  164.7866 C.ar    1  UNL1        0.0294
     16 C         138.7927  138.8439  166.0722 C.ar    1  UNL1        0.0004
     17 C         138.7806  140.4876  169.9408 C.3     1  UNL1        0.1745
     18 O         139.6597  139.7191  168.9992 O.3     1  UNL1       -0.3492
     19 C         143.1750  142.3529  167.5141 C.3     1  UNL1        0.0093
     20 C         143.0511  142.3471  166.0192 C.3     1  UNL1        0.0019
     21 C         144.1605  142.8969  165.1725 C.3     1  UNL1        0.0171
     22 C         144.1010  144.3148  164.6867 C.3     1  UNL1        0.0688
     23 N         143.1666  144.6878  163.5741 N.3     1  UNL1       -0.2937
     24 H         143.1339  143.8915  162.9376 H       1  UNL1        0.1236
     25 C         141.7451  145.0562  163.8802 C.3     1  UNL1        0.0956
     26 C         140.6760  144.0043  163.8567 C.ar    1  UNL1       -0.0062
     27 C         140.7435  142.8886  162.8563 C.ar    1  UNL1       -0.0006
     28 C         139.6744  141.8367  162.8328 C.ar    1  UNL1        0.0294
     29 C         138.5379  141.9005  163.8097 C.ar    1  UNL1        0.1401
     30 F         137.4687  140.8486  163.7861 F       1  UNL1       -0.2042
     31 C         138.4704  143.0162  164.8100 C.ar    1  UNL1        0.0294
     32 C         139.5395  144.0681  164.8335 C.ar    1  UNL1       -0.0006
@<TRIPOS>BOND
     1    17    18    1
     2    18     9    1
     3     9     8    1
     4     1     8    1
     5     1    19    1
     6    19    20    1
     7    20    21    1
     8    21    22    1
     9    22    23    1
    10    23    25    1
    11    25    26    1
    12    26    27   ar
    13    27    28   ar
    14    28    29   ar
    15    29    30    1
    16    29    31   ar
    17    31    32   ar
    18     1     2    1
    19     2     3    2
    20     2     4   am
    21     4     5    1
    22     9    10    1
    23    10    11   ar
    24    11    12   ar
    25    12    13   ar
    26    13    14    1
    27    13    15   ar
    28    15    16   ar
    29    32    26   ar
    30    16    10   ar
    31    23    24    1
    32     4     6    1
    33     5     7    1
@<TRIPOS>MOLECULE
*****
 32 33 0 0 0
SMALL
GASTEIGER

@<TRIPOS>ATOM
      1 C         139.4105  144.8425  163.2010 C.3     1  UNL1        0.0813
      2 C         139.9454  145.4561  161.9411 C.2     1  UNL1        0.2439
      3 O         139.1991  146.5743  161.2759 O.2     1  UNL1       -0.2731
      4 N         141.2267  144.9515  161.3464 N.am    1  UNL1       -0.1970
      5 O         141.7616  145.5652  160.0865 O.3     1  UNL1       -0.2952
      6 H         141.7166  144.2176  161.7829 H       1  UNL1        0.1822
      7 H         141.1631  146.2687  159.7901 H       1  UNL1        0.2414
      8 C         140.2779  144.7599  164.4219 C.3     1  UNL1        0.0433
      9 C         141.3180  143.6845  164.5317 C.3     1  UNL1        0.1380
     10 C         141.2030  142.6360  165.5982 C.ar    1  UNL1        0.0047
     11 C         142.3553  142.3774  166.5230 C.ar    1  UNL1        0.0004
     12 C         142.2403  141.3288  167.5895 C.ar    1  UNL1        0.0294
     13 C         140.9730  140.5389  167.7311 C.ar    1  UNL1        0.1401
     14 F         140.8580  139.4904  168.7976 F       1  UNL1       -0.2042
     15 C         139.8207  140.7976  166.8063 C.ar    1  UNL1        0.0294
     16 C         139.9357  141.8461  165.7398 C.ar    1  UNL1        0.0004
     17 C         143.7097  144.4535  163.8699 C.3     1  UNL1        0.1745
     18 O         142.4729  143.6577  163.5750 O.3     1  UNL1       -0.3492
     19 C         138.0082  144.3115  163.2400 C.3     1  UNL1        0.0093
     20 C         137.7533  142.8498  163.0200 C.3     1  UNL1        0.0019
     21 C         138.1367  142.2091  161.7190 C.3     1  UNL1        0.0171
     22 C         139.2670  141.2241  161.6725 C.3     1  UNL1        0.0688
     23 N         140.6721  141.6823  161.9293 N.3     1  UNL1       -0.2937
     24 H         140.6909  142.0570  162.8778 H       1  UNL1        0.1236
     25 C         141.8090  140.7093  161.8255 C.3     1  UNL1        0.0956
     26 C         142.3006  139.9968  163.0506 C.ar    1  UNL1       -0.0062
     27 C         143.6655  140.2967  163.5956 C.ar    1  UNL1       -0.0006
     28 C         144.1571  139.5842  164.8206 C.ar    1  UNL1        0.0294
     29 C         143.2837  138.5719  165.5007 C.ar    1  UNL1        0.1401
     30 F         143.7754  137.8594  166.7257 F       1  UNL1       -0.2042
     31 C         141.9188  138.2721  164.9557 C.ar    1  UNL1        0.0294
     32 C         141.4272  138.9845  163.7307 C.ar    1  UNL1       -0.0006
@<TRIPOS>BOND
     1    17    18    1
     2    18     9    1
     3     9     8    1
     4     1     8    1
     5     1    19    1
     6    19    20    1
     7    20    21    1
     8    21    22    1
     9    22    23    1
    10    23    25    1
    11    25    26    1
    12    26    27   ar
    13    27    28   ar
    14    28    29   ar
    15    29    30    1
    16    29    31   ar
    17    31    32   ar
    18     1     2    1
    19     2     3    2
    20     2     4   am
    21     4     5    1
    22     9    10    1
    23    10    11   ar
    24    11    12   ar
    25    12    13   ar
    26    13    14    1
    27    13    15   ar
    28    15    16   ar
    29    32    26   ar
    30    16    10   ar
    31    23    24    1
    32     4     6    1
    33     5     7    1
@<TRIPOS>MOLECULE
*****
 32 33 0 0 0
SMALL
GASTEIGER

@<TRIPOS>ATOM
      1 C         141.8683  141.9645  167.2379 C.3     1  UNL1        0.0813
      2 C         142.8068  141.5858  168.3451 C.2     1  UNL1        0.2439
      3 O         143.0701  140.1396  168.6434 O.2     1  UNL1       -0.2731
      4 N         143.4820  142.6534  169.1540 N.am    1  UNL1       -0.1970
      5 O         144.4205  142.2747  170.2611 O.3     1  UNL1       -0.2952
      6 H         143.3093  143.6026  168.9582 H       1  UNL1        0.1822
      7 H         144.4778  141.3082  170.3201 H       1  UNL1        0.2414
      8 C         140.3866  141.8409  167.4355 C.3     1  UNL1        0.0433
      9 C         139.7352  140.4901  167.4001 C.3     1  UNL1        0.1380
     10 C         139.3793  139.8634  166.0846 C.ar    1  UNL1        0.0047
     11 C         138.9657  138.4227  166.0277 C.ar    1  UNL1        0.0004
     12 C         138.6098  137.7960  164.7122 C.ar    1  UNL1        0.0294
     13 C         138.6675  138.6099  163.4536 C.ar    1  UNL1        0.1401
     14 F         138.3116  137.9832  162.1381 F       1  UNL1       -0.2042
     15 C         139.0812  140.0507  163.5105 C.ar    1  UNL1        0.0294
     16 C         139.4371  140.6774  164.8260 C.ar    1  UNL1        0.0004
     17 C         139.2599  140.5377  169.9538 C.3     1  UNL1        0.1745
     18 O         139.4398  139.7662  168.6802 O.3     1  UNL1       -0.3492
     19 C         142.4116  142.4668  165.9331 C.3     1  UNL1        0.0093
     20 C         143.8039  143.0208  165.8638 C.3     1  UNL1        0.0019
     21 C         144.2362  143.8155  164.6674 C.3     1  UNL1        0.0171
     22 C         144.3822  143.1441  163.3340 C.3     1  UNL1        0.0688
     23 N         145.5182  142.1947  163.0927 N.3     1  UNL1       -0.2937
     24 H         146.3785  142.7161  163.2611 H       1  UNL1        0.1236
     25 C         145.6177  140.9267  163.8878 C.3     1  UNL1        0.0956
     26 C         144.5281  139.8995  163.8009 C.ar    1  UNL1       -0.0062
     27 C         144.1032  139.3680  162.4642 C.ar    1  UNL1       -0.0006
     28 C         143.0135  138.3409  162.3774 C.ar    1  UNL1        0.0294
     29 C         142.3488  137.8451  163.6273 C.ar    1  UNL1        0.1401
     30 F         141.2591  136.8179  163.5404 F       1  UNL1       -0.2042
     31 C         142.7737  138.3766  164.9641 C.ar    1  UNL1        0.0294
     32 C         143.8633  139.4037  165.0509 C.ar    1  UNL1       -0.0006
@<TRIPOS>BOND
     1    17    18    1
     2    18     9    1
     3     9     8    1
     4     1     8    1
     5     1    19    1
     6    19    20    1
     7    20    21    1
     8    21    22    1
     9    22    23    1
    10    23    25    1
    11    25    26    1
    12    26    27   ar
    13    27    28   ar
    14    28    29   ar
    15    29    30    1
    16    29    31   ar
    17    31    32   ar
    18     1     2    1
    19     2     3    2
    20     2     4   am
    21     4     5    1
    22     9    10    1
    23    10    11   ar
    24    11    12   ar
    25    12    13   ar
    26    13    14    1
    27    13    15   ar
    28    15    16   ar
    29    32    26   ar
    30    16    10   ar
    31    23    24    1
    32     4     6    1
    33     5     7    1
@<TRIPOS>MOLECULE
*****
 32 33 0 0 0
SMALL
GASTEIGER

@<TRIPOS>ATOM
      1 C         140.4138  141.3024  168.0556 C.3     1  UNL1        0.0813
      2 C         140.3739  141.1328  169.5455 C.2     1  UNL1        0.2439
      3 O         140.3269  139.7577  170.1428 O.2     1  UNL1       -0.2731
      4 N         140.3809  142.3383  170.4380 N.am    1  UNL1       -0.1970
      5 O         140.3410  142.1687  171.9278 O.3     1  UNL1       -0.2952
      6 H         140.4117  143.2408  170.0460 H       1  UNL1        0.1822
      7 H         140.3134  141.2237  172.1451 H       1  UNL1        0.2414
      8 C         140.5021  140.0981  167.1658 C.3     1  UNL1        0.0433
      9 C         139.2509  139.3984  166.7242 C.3     1  UNL1        0.1380
     10 C         139.0136  139.1346  165.2668 C.ar    1  UNL1        0.0047
     11 C         139.5334  137.8758  164.6381 C.ar    1  UNL1        0.0004
     12 C         139.2961  137.6120  163.1806 C.ar    1  UNL1        0.0294
     13 C         138.5390  138.6070  162.3519 C.ar    1  UNL1        0.1401
     14 F         138.3018  138.3432  160.8945 F       1  UNL1       -0.2042
     15 C         138.0193  139.8658  162.9806 C.ar    1  UNL1        0.0294
     16 C         138.2565  140.1296  164.4380 C.ar    1  UNL1        0.0004
     17 C         137.1613  137.9901  167.3566 C.3     1  UNL1        0.1745
     18 O         138.2369  138.9626  167.7401 O.3     1  UNL1       -0.3492
     19 C         140.3653  142.6763  167.4556 C.3     1  UNL1        0.0093
     20 C         139.8463  142.8679  166.0613 C.3     1  UNL1        0.0019
     21 C         139.3619  144.2172  165.6202 C.3     1  UNL1        0.0171
     22 C         139.6853  144.7169  164.2434 C.3     1  UNL1        0.0688
     23 N         141.0533  145.2538  163.9424 N.3     1  UNL1       -0.2937
     24 H         141.4916  145.4626  164.8394 H       1  UNL1        0.1236
     25 C         142.0311  144.4225  163.1659 C.3     1  UNL1        0.0956
     26 C         142.2473  142.9834  163.5298 C.ar    1  UNL1       -0.0062
     27 C         143.1513  142.6264  164.6722 C.ar    1  UNL1       -0.0006
     28 C         143.3675  141.1873  165.0360 C.ar    1  UNL1        0.0294
     29 C         142.6796  140.1054  164.2574 C.ar    1  UNL1        0.1401
     30 F         142.8958  138.6663  164.6213 F       1  UNL1       -0.2042
     31 C         141.7756  140.4625  163.1150 C.ar    1  UNL1        0.0294
     32 C         141.5594  141.9015  162.7511 C.ar    1  UNL1       -0.0006
@<TRIPOS>BOND
     1    17    18    1
     2    18     9    1
     3     9     8    1
     4     1     8    1
     5     1    19    1
     6    19    20    1
     7    20    21    1
     8    21    22    1
     9    22    23    1
    10    23    25    1
    11    25    26    1
    12    26    27   ar
    13    27    28   ar
    14    28    29   ar
    15    29    30    1
    16    29    31   ar
    17    31    32   ar
    18     1     2    1
    19     2     3    2
    20     2     4   am
    21     4     5    1
    22     9    10    1
    23    10    11   ar
    24    11    12   ar
    25    12    13   ar
    26    13    14    1
    27    13    15   ar
    28    15    16   ar
    29    32    26   ar
    30    16    10   ar
    31    23    24    1
    32     4     6    1
    33     5     7    1
@<TRIPOS>MOLECULE
*****
 32 33 0 0 0
SMALL
GASTEIGER

@<TRIPOS>ATOM
      1 C         142.4372  142.7607  163.9863 C.3     1  UNL1        0.0813
      2 C         143.7674  142.9869  163.3311 C.2     1  UNL1        0.2439
      3 O         144.1825  144.3730  162.9354 O.2     1  UNL1       -0.2731
      4 N         144.6825  141.8271  163.0714 N.am    1  UNL1       -0.1970
      5 O         146.0127  142.0534  162.4162 O.3     1  UNL1       -0.2952
      6 H         144.4100  140.9174  163.3311 H       1  UNL1        0.1822
      7 H         146.1234  142.9983  162.2271 H       1  UNL1        0.2414
      8 C         141.2107  142.5639  163.1455 C.3     1  UNL1        0.0433
      9 C         139.8769  142.3599  163.8008 C.3     1  UNL1        0.1380
     10 C         139.4926  141.0036  164.3132 C.ar    1  UNL1        0.0047
     11 C         139.0757  140.8327  165.7439 C.ar    1  UNL1        0.0004
     12 C         138.6914  139.4763  166.2562 C.ar    1  UNL1        0.0294
     13 C         138.7241  138.2907  165.3379 C.ar    1  UNL1        0.1401
     14 F         138.3398  136.9344  165.8502 F       1  UNL1       -0.2042
     15 C         139.1410  138.4616  163.9071 C.ar    1  UNL1        0.0294
     16 C         139.5252  139.8180  163.3948 C.ar    1  UNL1        0.0004
     17 C         139.1624  144.5512  164.9998 C.3     1  UNL1        0.1745
     18 O         138.9274  143.5123  163.9437 O.3     1  UNL1       -0.3492
     19 C         142.3334  142.7312  165.4824 C.3     1  UNL1        0.0093
     20 C         142.9622  141.6103  166.2559 C.3     1  UNL1        0.0019
     21 C         142.8711  140.2030  165.7450 C.3     1  UNL1        0.0171
     22 C         142.4268  139.1004  166.6598 C.3     1  UNL1        0.0688
     23 N         143.1325  138.8783  167.9647 N.3     1  UNL1       -0.2937
     24 H         144.0020  139.4098  167.9234 H       1  UNL1        0.1236
     25 C         142.4598  139.2478  169.2535 C.3     1  UNL1        0.0956
     26 C         141.9691  140.6489  169.4685 C.ar    1  UNL1       -0.0062
     27 C         140.5324  140.9893  169.2037 C.ar    1  UNL1       -0.0006
     28 C         140.0417  142.3903  169.4188 C.ar    1  UNL1        0.0294
     29 C         140.9877  143.4509  169.8987 C.ar    1  UNL1        0.1401
     30 F         140.4969  144.8520  170.1138 F       1  UNL1       -0.2042
     31 C         142.4243  143.1105  170.1635 C.ar    1  UNL1        0.0294
     32 C         142.9150  141.7095  169.9485 C.ar    1  UNL1       -0.0006
@<TRIPOS>BOND
     1    17    18    1
     2    18     9    1
     3     9     8    1
     4     1     8    1
     5     1    19    1
     6    19    20    1
     7    20    21    1
     8    21    22    1
     9    22    23    1
    10    23    25    1
    11    25    26    1
    12    26    27   ar
    13    27    28   ar
    14    28    29   ar
    15    29    30    1
    16    29    31   ar
    17    31    32   ar
    18     1     2    1
    19     2     3    2
    20     2     4   am
    21     4     5    1
    22     9    10    1
    23    10    11   ar
    24    11    12   ar
    25    12    13   ar
    26    13    14    1
    27    13    15   ar
    28    15    16   ar
    29    32    26   ar
    30    16    10   ar
    31    23    24    1
    32     4     6    1
    33     5     7    1
@<TRIPOS>MOLECULE
*****
 32 33 0 0 0
SMALL
GASTEIGER

@<TRIPOS>ATOM
      1 C         142.2356  141.3221  167.5775 C.3     1  UNL1        0.0813
      2 C         143.0770  141.4580  168.8118 C.2     1  UNL1        0.2439
      3 O         143.1725  140.3194  169.7836 O.2     1  UNL1       -0.2731
      4 N         143.8231  142.7326  169.0743 N.am    1  UNL1       -0.1970
      5 O         144.6645  142.8685  170.3085 O.3     1  UNL1       -0.2952
      6 H         143.7604  143.4799  168.4364 H       1  UNL1        0.1822
      7 H         144.6169  142.0484  170.8243 H       1  UNL1        0.2414
      8 C         140.7642  141.6075  167.6377 C.3     1  UNL1        0.0433
      9 C         139.7763  140.4898  167.4792 C.3     1  UNL1        0.1380
     10 C         139.2874  140.1091  166.1132 C.ar    1  UNL1        0.0047
     11 C         138.7042  141.1529  165.2075 C.ar    1  UNL1        0.0004
     12 C         138.2152  140.7722  163.8414 C.ar    1  UNL1        0.0294
     13 C         138.3094  139.3476  163.3812 C.ar    1  UNL1        0.1401
     14 F         137.8204  138.9669  162.0153 F       1  UNL1       -0.2042
     15 C         138.8925  138.3038  164.2870 C.ar    1  UNL1        0.0294
     16 C         139.3815  138.6845  165.6530 C.ar    1  UNL1        0.0004
     17 C         139.3001  140.4157  170.0322 C.3     1  UNL1        0.1745
     18 O         139.2775  139.7530  168.6867 O.3     1  UNL1       -0.3492
     19 C         142.8654  140.9008  166.2830 C.3     1  UNL1        0.0093
     20 C         143.0825  139.4450  165.9934 C.3     1  UNL1        0.0019
     21 C         143.6356  139.0188  164.6658 C.3     1  UNL1        0.0171
     22 C         144.9755  139.5206  164.2156 C.3     1  UNL1        0.0688
     23 N         145.1512  140.0411  162.8198 N.3     1  UNL1       -0.2937
     24 H         145.4410  139.2501  162.2448 H       1  UNL1        0.1236
     25 C         144.0003  140.6924  162.1118 C.3     1  UNL1        0.0956
     26 C         143.4650  142.0055  162.6008 C.ar    1  UNL1       -0.0062
     27 C         144.3622  143.2062  162.6593 C.ar    1  UNL1       -0.0006
     28 C         143.8269  144.5193  163.1483 C.ar    1  UNL1        0.0294
     29 C         142.3943  144.6317  163.5788 C.ar    1  UNL1        0.1401
     30 F         141.8590  145.9449  164.0678 F       1  UNL1       -0.2042
     31 C         141.4972  143.4311  163.5202 C.ar    1  UNL1        0.0294
     32 C         142.0325  142.1180  163.0312 C.ar    1  UNL1       -0.0006
@<TRIPOS>BOND
     1    17    18    1
     2    18     9    1
     3     9     8    1
     4     1     8    1
     5     1    19    1
     6    19    20    1
     7    20    21    1
     8    21    22    1
     9    22    23    1
    10    23    25    1
    11    25    26    1
    12    26    27   ar
    13    27    28   ar
    14    28    29   ar
    15    29    30    1
    16    29    31   ar
    17    31    32   ar
    18     1     2    1
    19     2     3    2
    20     2     4   am
    21     4     5    1
    22     9    10    1
    23    10    11   ar
    24    11    12   ar
    25    12    13   ar
    26    13    14    1
    27    13    15   ar
    28    15    16   ar
    29    32    26   ar
    30    16    10   ar
    31    23    24    1
    32     4     6    1
    33     5     7    1
@<TRIPOS>MOLECULE
*****
 32 33 0 0 0
SMALL
GASTEIGER

@<TRIPOS>ATOM
      1 C         138.8008  143.6404  164.4642 C.3     1  UNL1        0.0813
      2 C         138.9510  144.7040  163.4172 C.2     1  UNL1        0.2439
      3 O         137.8655  144.9180  162.4043 O.2     1  UNL1       -0.2731
      4 N         140.1867  145.5535  163.3830 N.am    1  UNL1       -0.1970
      5 O         140.3369  146.6171  162.3360 O.3     1  UNL1       -0.2952
      6 H         140.8992  145.4131  164.0478 H       1  UNL1        0.1822
      7 H         139.5522  146.6226  161.7658 H       1  UNL1        0.2414
      8 C         139.6301  143.6947  165.7129 C.3     1  UNL1        0.0433
      9 C         140.9194  142.9320  165.7907 C.3     1  UNL1        0.1380
     10 C         141.1243  141.9137  166.8729 C.ar    1  UNL1        0.0047
     11 C         139.9861  141.0360  167.3021 C.ar    1  UNL1        0.0004
     12 C         140.1910  140.0177  168.3843 C.ar    1  UNL1        0.0294
     13 C         141.5340  139.8772  169.0374 C.ar    1  UNL1        0.1401
     14 F         141.7388  138.8590  170.1196 F       1  UNL1       -0.2042
     15 C         142.6722  140.7550  168.6083 C.ar    1  UNL1        0.0294
     16 C         142.4673  141.7732  167.5261 C.ar    1  UNL1        0.0004
     17 C         142.1366  142.3007  163.5840 C.3     1  UNL1        0.1745
     18 O         142.0039  143.1875  164.7864 O.3     1  UNL1       -0.3492
     19 C         137.8213  142.5224  164.2625 C.3     1  UNL1        0.0093
     20 C         138.1906  141.3468  163.4072 C.3     1  UNL1        0.0019
     21 C         137.6524  141.2363  162.0114 C.3     1  UNL1        0.0171
     22 C         137.5589  139.8943  161.3478 C.3     1  UNL1        0.0688
     23 N         138.7677  139.2966  160.6908 N.3     1  UNL1       -0.2937
     24 H         139.4889  140.0180  160.6892 H       1  UNL1        0.1236
     25 C         139.3951  138.0584  161.2593 C.3     1  UNL1        0.0956
     26 C         140.2086  138.1394  162.5170 C.ar    1  UNL1       -0.0062
     27 C         139.5509  137.9375  163.8499 C.ar    1  UNL1       -0.0006
     28 C         140.3644  138.0185  165.1075 C.ar    1  UNL1        0.0294
     29 C         141.8356  138.3014  165.0322 C.ar    1  UNL1        0.1401
     30 F         142.6491  138.3823  166.2899 F       1  UNL1       -0.2042
     31 C         142.4933  138.5032  163.6993 C.ar    1  UNL1        0.0294
     32 C         141.6798  138.4223  162.4417 C.ar    1  UNL1       -0.0006
@<TRIPOS>BOND
     1    17    18    1
     2    18     9    1
     3     9     8    1
     4     1     8    1
     5     1    19    1
     6    19    20    1
     7    20    21    1
     8    21    22    1
     9    22    23    1
    10    23    25    1
    11    25    26    1
    12    26    27   ar
    13    27    28   ar
    14    28    29   ar
    15    29    30    1
    16    29    31   ar
    17    31    32   ar
    18     1     2    1
    19     2     3    2
    20     2     4   am
    21     4     5    1
    22     9    10    1
    23    10    11   ar
    24    11    12   ar
    25    12    13   ar
    26    13    14    1
    27    13    15   ar
    28    15    16   ar
    29    32    26   ar
    30    16    10   ar
    31    23    24    1
    32     4     6    1
    33     5     7    1
