@<TRIPOS>MOLECULE
*****
 33 35 0 0 0
SMALL
GASTEIGER

@<TRIPOS>ATOM
      1 S         141.1906  144.9579  161.8417 S.O2    1  UNL1        0.0768
      2 O         142.1290  143.8278  161.5379 O.2     1  UNL1       -0.1498
      3 O         140.2523  146.0880  162.1454 O.2     1  UNL1       -0.1498
      4 O         139.4934  144.1791  159.4937 O.2     1  UNL1       -0.2509
      5 C         140.6154  145.1587  159.3160 C.2     1  UNL1        0.3232
      6 N         140.8887  145.7489  157.9644 N.am    1  UNL1       -0.2663
      7 N         141.4640  145.5481  160.4901 N.am    1  UNL1       -0.1690
      8 H         141.6251  146.3919  157.8478 H       1  UNL1        0.1565
      9 H         142.2004  146.1910  160.3735 H       1  UNL1        0.1781
     10 C         140.0401  145.3596  156.7904 C.ar    1  UNL1        0.0630
     11 C         140.1485  143.9802  156.2112 C.ar    1  UNL1        0.0270
     12 C         139.2999  143.5909  155.0372 C.ar    1  UNL1        0.0590
     13 CL        139.4084  142.2114  154.4580 Cl      1  UNL1       -0.0822
     14 C         138.3429  144.5810  154.4424 C.ar    1  UNL1        0.0123
     15 C         138.2344  145.9603  155.0216 C.ar    1  UNL1        0.0135
     16 C         139.0830  146.3496  156.1956 C.ar    1  UNL1        0.0712
     17 CL        138.9746  147.7291  156.7748 Cl      1  UNL1       -0.0810
     18 C         140.9173  144.3676  163.1933 C.ar    1  UNL1        0.1255
     19 C         139.6808  144.7595  163.9467 C.ar    1  UNL1        0.0233
     20 C         139.4075  144.1692  165.2983 C.ar    1  UNL1        0.0383
     21 C         140.3706  143.1871  165.8965 C.ar    1  UNL1        0.1386
     22 C         141.6071  142.7952  165.1431 C.ar    1  UNL1        0.0383
     23 C         141.8804  143.3855  163.7915 C.ar    1  UNL1        0.0233
     24 O         140.0973  142.5969  167.2481 O.3     1  UNL1       -0.4755
     25 C         140.5922  141.2202  167.5794 C.3     1  UNL1        0.2054
     26 C         139.6923  140.0346  167.3927 C.3     1  UNL1        0.0488
     27 C         139.4050  139.5209  166.0130 C.3     1  UNL1        0.0212
     28 C         138.1974  140.0072  165.2680 C.3     1  UNL1        0.0722
     29 N         138.3608  140.7186  163.9576 N.3     1  UNL1       -0.2727
     30 C         139.5079  140.5585  163.0044 C.3     1  UNL1        0.0721
     31 C         139.2618  141.4560  161.8280 C.3     1  UNL1        0.0188
     32 C         137.9626  142.1707  162.0540 C.3     1  UNL1        0.0188
     33 C         137.4057  141.7150  163.3701 C.3     1  UNL1        0.0721
@<TRIPOS>BOND
     1     4     5    2
     2     5     6   am
     3     6    10    1
     4    10    11   ar
     5    11    12   ar
     6    12    13    1
     7    12    14   ar
     8    14    15   ar
     9    15    16   ar
    10    16    17    1
    11     5     7   am
    12     7     1    1
    13     1     2    2
    14     1     3    2
    15     1    18    1
    16    18    19   ar
    17    19    20   ar
    18    20    21   ar
    19    21    24    1
    20    24    25    1
    21    25    26    1
    22    26    27    1
    23    27    28    1
    24    28    29    1
    25    29    30    1
    26    30    31    1
    27    31    32    1
    28    32    33    1
    29    21    22   ar
    30    22    23   ar
    31    16    10   ar
    32    23    18   ar
    33    33    29    1
    34     6     8    1
    35     7     9    1
@<TRIPOS>MOLECULE
*****
 33 35 0 0 0
SMALL
GASTEIGER

@<TRIPOS>ATOM
      1 S         141.7243  144.4467  162.5082 S.O2    1  UNL1        0.0768
      2 O         140.6983  145.5097  162.7674 O.2     1  UNL1       -0.1498
      3 O         142.7503  143.3836  162.2490 O.2     1  UNL1       -0.1498
      4 O         140.3839  143.8921  159.8821 O.2     1  UNL1       -0.2509
      5 C         141.4953  144.8966  159.9596 C.2     1  UNL1        0.3232
      6 N         141.9365  145.6237  158.7241 N.am    1  UNL1       -0.2663
      7 N         142.1655  145.1738  161.2727 N.am    1  UNL1       -0.1690
      8 H         142.6660  146.2829  158.7749 H       1  UNL1        0.1565
      9 H         142.8949  145.8330  161.3235 H       1  UNL1        0.1781
     10 C         141.2664  145.3464  157.4110 C.ar    1  UNL1        0.0630
     11 C         140.1584  146.2367  156.9317 C.ar    1  UNL1        0.0270
     12 C         139.4883  145.9594  155.6187 C.ar    1  UNL1        0.0590
     13 CL        138.3803  146.8498  155.1393 Cl      1  UNL1       -0.0822
     14 C         139.9262  144.7919  154.7850 C.ar    1  UNL1        0.0123
     15 C         141.0341  143.9016  155.2643 C.ar    1  UNL1        0.0135
     16 C         141.7042  144.1788  156.5773 C.ar    1  UNL1        0.0712
     17 CL        142.8122  143.2885  157.0567 Cl      1  UNL1       -0.0810
     18 C         141.2831  143.7195  163.7437 C.ar    1  UNL1        0.1255
     19 C         141.9856  142.4633  164.1658 C.ar    1  UNL1        0.0233
     20 C         141.5444  141.7361  165.4014 C.ar    1  UNL1        0.0383
     21 C         140.4006  142.2653  166.2148 C.ar    1  UNL1        0.1386
     22 C         139.6980  143.5216  165.7927 C.ar    1  UNL1        0.0383
     23 C         140.1392  144.2487  164.5572 C.ar    1  UNL1        0.0233
     24 O         139.9594  141.5381  167.4503 O.3     1  UNL1       -0.4755
     25 C         139.9030  140.0392  167.4586 C.3     1  UNL1        0.2054
     26 C         138.5813  139.3378  167.3529 C.3     1  UNL1        0.0488
     27 C         138.2121  138.6203  166.0884 C.3     1  UNL1        0.0212
     28 C         139.0901  138.7342  164.8777 C.3     1  UNL1        0.0722
     29 N         138.8621  139.8372  163.8870 N.3     1  UNL1       -0.2727
     30 C         137.8023  140.8951  163.9737 C.3     1  UNL1        0.0721
     31 C         137.9391  141.7877  162.7760 C.3     1  UNL1        0.0188
     32 C         139.0834  141.2813  161.9489 C.3     1  UNL1        0.0188
     33 C         139.6539  140.0759  162.6355 C.3     1  UNL1        0.0721
@<TRIPOS>BOND
     1     4     5    2
     2     5     6   am
     3     6    10    1
     4    10    11   ar
     5    11    12   ar
     6    12    13    1
     7    12    14   ar
     8    14    15   ar
     9    15    16   ar
    10    16    17    1
    11     5     7   am
    12     7     1    1
    13     1     2    2
    14     1     3    2
    15     1    18    1
    16    18    19   ar
    17    19    20   ar
    18    20    21   ar
    19    21    24    1
    20    24    25    1
    21    25    26    1
    22    26    27    1
    23    27    28    1
    24    28    29    1
    25    29    30    1
    26    30    31    1
    27    31    32    1
    28    32    33    1
    29    21    22   ar
    30    22    23   ar
    31    16    10   ar
    32    23    18   ar
    33    33    29    1
    34     6     8    1
    35     7     9    1
@<TRIPOS>MOLECULE
*****
 33 35 0 0 0
SMALL
GASTEIGER

@<TRIPOS>ATOM
      1 S         143.4391  139.4520  161.2233 S.O2    1  UNL1        0.0768
      2 O         143.7495  138.0789  161.7412 O.2     1  UNL1       -0.1498
      3 O         143.1287  140.8251  160.7053 O.2     1  UNL1       -0.1498
      4 O         141.4792  138.2088  159.3224 O.2     1  UNL1       -0.2509
      5 C         142.9044  138.4141  158.9023 C.2     1  UNL1        0.3232
      6 N         143.3497  137.9978  157.5318 N.am    1  UNL1       -0.2663
      7 N         143.8844  139.0357  159.8527 N.am    1  UNL1       -0.1690
      8 H         144.2851  138.1325  157.2560 H       1  UNL1        0.1565
      9 H         144.8198  139.1704  159.5770 H       1  UNL1        0.1781
     10 C         142.3697  137.3762  156.5813 C.ar    1  UNL1        0.0630
     11 C         141.3995  138.2409  155.8324 C.ar    1  UNL1        0.0270
     12 C         140.4196  137.6193  154.8820 C.ar    1  UNL1        0.0590
     13 CL        139.4493  138.4841  154.1330 Cl      1  UNL1       -0.0822
     14 C         140.4098  136.1329  154.6805 C.ar    1  UNL1        0.0123
     15 C         141.3800  135.2682  155.4294 C.ar    1  UNL1        0.0135
     16 C         142.3600  135.8898  156.3798 C.ar    1  UNL1        0.0712
     17 CL        143.3302  135.0250  157.1288 Cl      1  UNL1       -0.0810
     18 C         142.9939  139.8683  162.5938 C.ar    1  UNL1        0.1255
     19 C         143.6222  139.2490  163.8069 C.ar    1  UNL1        0.0233
     20 C         143.1769  139.6654  165.1775 C.ar    1  UNL1        0.0383
     21 C         142.1032  140.7009  165.3349 C.ar    1  UNL1        0.1386
     22 C         141.4749  141.3202  164.1218 C.ar    1  UNL1        0.0383
     23 C         141.9201  140.9039  162.7512 C.ar    1  UNL1        0.0233
     24 O         141.6580  141.1172  166.7054 O.3     1  UNL1       -0.4755
     25 C         140.1998  141.1025  167.0570 C.3     1  UNL1        0.2054
     26 C         139.5914  139.8823  167.6824 C.3     1  UNL1        0.0488
     27 C         138.4761  139.1599  166.9865 C.3     1  UNL1        0.0212
     28 C         138.1794  139.4491  165.5449 C.3     1  UNL1        0.0722
     29 N         138.9301  138.7274  164.4653 N.3     1  UNL1       -0.2727
     30 C         140.0240  137.7222  164.6728 C.3     1  UNL1        0.0721
     31 C         140.4887  137.2578  163.3243 C.3     1  UNL1        0.0188
     32 C         139.6821  137.9760  162.2834 C.3     1  UNL1        0.0188
     33 C         138.7188  138.8843  162.9886 C.3     1  UNL1        0.0721
@<TRIPOS>BOND
     1     4     5    2
     2     5     6   am
     3     6    10    1
     4    10    11   ar
     5    11    12   ar
     6    12    13    1
     7    12    14   ar
     8    14    15   ar
     9    15    16   ar
    10    16    17    1
    11     5     7   am
    12     7     1    1
    13     1     2    2
    14     1     3    2
    15     1    18    1
    16    18    19   ar
    17    19    20   ar
    18    20    21   ar
    19    21    24    1
    20    24    25    1
    21    25    26    1
    22    26    27    1
    23    27    28    1
    24    28    29    1
    25    29    30    1
    26    30    31    1
    27    31    32    1
    28    32    33    1
    29    21    22   ar
    30    22    23   ar
    31    16    10   ar
    32    23    18   ar
    33    33    29    1
    34     6     8    1
    35     7     9    1
@<TRIPOS>MOLECULE
*****
 33 35 0 0 0
SMALL
GASTEIGER

@<TRIPOS>ATOM
      1 S         138.9463  139.2607  163.9590 S.O2    1  UNL1        0.0768
      2 O         140.0389  138.2463  163.7938 O.2     1  UNL1       -0.1498
      3 O         137.8538  140.2751  164.1241 O.2     1  UNL1       -0.1498
      4 O         140.6207  141.1955  165.5253 O.2     1  UNL1       -0.2509
      5 C         139.8859  140.0957  166.2328 C.2     1  UNL1        0.3232
      6 N         139.9883  139.9633  167.7234 N.am    1  UNL1       -0.2663
      7 N         139.0487  139.1283  165.4496 N.am    1  UNL1       -0.1690
      8 H         139.5060  139.2414  168.1877 H       1  UNL1        0.1565
      9 H         138.5664  138.4064  165.9139 H       1  UNL1        0.1781
     10 C         140.8255  140.9307  168.5066 C.ar    1  UNL1        0.0630
     11 C         140.2449  142.2433  168.9423 C.ar    1  UNL1        0.0270
     12 C         141.0821  143.2106  169.7255 C.ar    1  UNL1        0.0590
     13 CL        140.5015  144.5233  170.1612 Cl      1  UNL1       -0.0822
     14 C         142.4998  142.8653  170.0729 C.ar    1  UNL1        0.0123
     15 C         143.0804  141.5527  169.6371 C.ar    1  UNL1        0.0135
     16 C         142.2432  140.5854  168.8540 C.ar    1  UNL1        0.0712
     17 CL        142.8238  139.2727  168.4182 Cl      1  UNL1       -0.0810
     18 C         138.8440  139.3932  162.4684 C.ar    1  UNL1        0.1255
     19 C         140.0644  139.2171  161.6142 C.ar    1  UNL1        0.0233
     20 C         139.9619  139.3496  160.1235 C.ar    1  UNL1        0.0383
     21 C         138.6392  139.6580  159.4871 C.ar    1  UNL1        0.1386
     22 C         137.4188  139.8341  160.3413 C.ar    1  UNL1        0.0383
     23 C         137.5211  139.7016  161.8319 C.ar    1  UNL1        0.0233
     24 O         138.5368  139.7905  157.9965 O.3     1  UNL1       -0.4755
     25 C         139.0124  141.0421  157.3203 C.3     1  UNL1        0.2054
     26 C         138.9048  142.3622  158.0245 C.3     1  UNL1        0.0488
     27 C         140.1171  142.9727  158.6629 C.3     1  UNL1        0.0212
     28 C         139.9959  144.2582  159.4262 C.3     1  UNL1        0.0722
     29 N         139.5446  144.2414  160.8566 N.3     1  UNL1       -0.2727
     30 C         138.9028  143.0856  161.5652 C.3     1  UNL1        0.0721
     31 C         138.6174  143.5074  162.9761 C.3     1  UNL1        0.0188
     32 C         139.0828  144.9239  163.1395 C.3     1  UNL1        0.0188
     33 C         139.6559  145.3776  161.8296 C.3     1  UNL1        0.0721
@<TRIPOS>BOND
     1     4     5    2
     2     5     6   am
     3     6    10    1
     4    10    11   ar
     5    11    12   ar
     6    12    13    1
     7    12    14   ar
     8    14    15   ar
     9    15    16   ar
    10    16    17    1
    11     5     7   am
    12     7     1    1
    13     1     2    2
    14     1     3    2
    15     1    18    1
    16    18    19   ar
    17    19    20   ar
    18    20    21   ar
    19    21    24    1
    20    24    25    1
    21    25    26    1
    22    26    27    1
    23    27    28    1
    24    28    29    1
    25    29    30    1
    26    30    31    1
    27    31    32    1
    28    32    33    1
    29    21    22   ar
    30    22    23   ar
    31    16    10   ar
    32    23    18   ar
    33    33    29    1
    34     6     8    1
    35     7     9    1
@<TRIPOS>MOLECULE
*****
 33 35 0 0 0
SMALL
GASTEIGER

@<TRIPOS>ATOM
      1 S         139.0044  139.1504  164.1935 S.O2    1  UNL1        0.0768
      2 O         140.0722  138.0970  164.2038 O.2     1  UNL1       -0.1498
      3 O         137.9366  140.2037  164.1833 O.2     1  UNL1       -0.1498
      4 O         140.7388  141.0615  165.7230 O.2     1  UNL1       -0.2509
      5 C         139.8520  140.1007  166.4582 C.2     1  UNL1        0.3232
      6 N         139.8324  140.0955  167.9580 N.am    1  UNL1       -0.2663
      7 N         138.9848  139.1451  165.6934 N.am    1  UNL1       -0.1690
      8 H         139.2503  139.4649  168.4405 H       1  UNL1        0.1565
      9 H         138.4027  138.5145  166.1758 H       1  UNL1        0.1781
     10 C         140.6996  141.0511  168.7228 C.ar    1  UNL1        0.0630
     11 C         140.1684  142.3987  169.1124 C.ar    1  UNL1        0.0270
     12 C         141.0357  143.3542  169.8771 C.ar    1  UNL1        0.0590
     13 CL        140.5045  144.7018  170.2668 Cl      1  UNL1       -0.0822
     14 C         142.4341  142.9621  170.2522 C.ar    1  UNL1        0.0123
     15 C         142.9653  141.6145  169.8626 C.ar    1  UNL1        0.0135
     16 C         142.0980  140.6590  169.0979 C.ar    1  UNL1        0.0712
     17 CL        142.6292  139.3114  168.7082 Cl      1  UNL1       -0.0810
     18 C         139.0240  139.1556  162.6937 C.ar    1  UNL1        0.1255
     19 C         139.4923  137.9428  161.9455 C.ar    1  UNL1        0.0233
     20 C         139.5119  137.9481  160.4456 C.ar    1  UNL1        0.0383
     21 C         139.0632  139.1661  159.6940 C.ar    1  UNL1        0.1386
     22 C         138.5948  140.3789  160.4422 C.ar    1  UNL1        0.0383
     23 C         138.5752  140.3737  161.9420 C.ar    1  UNL1        0.0233
     24 O         139.0828  139.1714  158.1941 O.3     1  UNL1       -0.4755
     25 C         139.7476  138.0522  157.4488 C.3     1  UNL1        0.2054
     26 C         141.1664  138.1991  156.9843 C.3     1  UNL1        0.0488
     27 C         142.2957  138.0199  157.9551 C.3     1  UNL1        0.0212
     28 C         142.8162  139.1968  158.7257 C.3     1  UNL1        0.0722
     29 N         142.8839  139.1423  160.2232 N.3     1  UNL1       -0.2727
     30 C         143.3977  137.9949  161.0414 C.3     1  UNL1        0.0721
     31 C         143.2810  138.3691  162.4893 C.3     1  UNL1        0.0188
     32 C         142.6951  139.7478  162.5659 C.3     1  UNL1        0.0188
     33 C         142.4497  140.2256  161.1654 C.3     1  UNL1        0.0721
@<TRIPOS>BOND
     1     4     5    2
     2     5     6   am
     3     6    10    1
     4    10    11   ar
     5    11    12   ar
     6    12    13    1
     7    12    14   ar
     8    14    15   ar
     9    15    16   ar
    10    16    17    1
    11     5     7   am
    12     7     1    1
    13     1     2    2
    14     1     3    2
    15     1    18    1
    16    18    19   ar
    17    19    20   ar
    18    20    21   ar
    19    21    24    1
    20    24    25    1
    21    25    26    1
    22    26    27    1
    23    27    28    1
    24    28    29    1
    25    29    30    1
    26    30    31    1
    27    31    32    1
    28    32    33    1
    29    21    22   ar
    30    22    23   ar
    31    16    10   ar
    32    23    18   ar
    33    33    29    1
    34     6     8    1
    35     7     9    1
@<TRIPOS>MOLECULE
*****
 33 35 0 0 0
SMALL
GASTEIGER

@<TRIPOS>ATOM
      1 S         143.7186  139.1025  164.1756 S.O2    1  UNL1        0.0768
      2 O         142.5620  138.1491  164.1210 O.2     1  UNL1       -0.1498
      3 O         144.8753  140.0560  164.2303 O.2     1  UNL1       -0.1498
      4 O         141.7677  140.7248  165.7763 O.2     1  UNL1       -0.2509
      5 C         142.7451  139.8255  166.4734 C.2     1  UNL1        0.3232
      6 N         142.7470  139.7374  167.9707 N.am    1  UNL1       -0.2663
      7 N         143.7206  139.0144  165.6730 N.am    1  UNL1       -0.1690
      8 H         143.3886  139.1471  168.4282 H       1  UNL1        0.1565
      9 H         144.3621  138.4241  166.1305 H       1  UNL1        0.1781
     10 C         141.7715  140.5485  168.7711 C.ar    1  UNL1        0.0630
     11 C         140.4295  139.9769  169.1204 C.ar    1  UNL1        0.0270
     12 C         139.4541  140.7880  169.9208 C.ar    1  UNL1        0.0590
     13 CL        138.1120  140.2164  170.2701 Cl      1  UNL1       -0.0822
     14 C         139.8207  142.1708  170.3717 C.ar    1  UNL1        0.0123
     15 C         141.1628  142.7425  170.0224 C.ar    1  UNL1        0.0135
     16 C         142.1382  141.9314  169.2221 C.ar    1  UNL1        0.0712
     17 CL        143.4803  142.5030  168.8727 Cl      1  UNL1       -0.0810
     18 C         143.7167  139.1907  162.6783 C.ar    1  UNL1        0.1255
     19 C         143.3523  137.9897  161.8567 C.ar    1  UNL1        0.0233
     20 C         143.3504  138.0780  160.3592 C.ar    1  UNL1        0.0383
     21 C         143.7128  139.3671  159.6834 C.ar    1  UNL1        0.1386
     22 C         144.0772  140.5680  160.5050 C.ar    1  UNL1        0.0383
     23 C         144.0791  140.4799  162.0023 C.ar    1  UNL1        0.0233
     24 O         143.7108  139.4552  158.1861 O.3     1  UNL1       -0.4755
     25 C         142.4109  139.4872  157.4383 C.3     1  UNL1        0.2054
     26 C         141.4499  138.3414  157.5555 C.3     1  UNL1        0.0488
     27 C         141.5551  137.1754  156.6178 C.3     1  UNL1        0.0212
     28 C         142.7946  136.3307  156.6075 C.3     1  UNL1        0.0722
     29 N         142.6842  134.8379  156.5114 N.3     1  UNL1       -0.2727
     30 C         141.8279  134.0777  155.5424 C.3     1  UNL1        0.0721
     31 C         142.0251  132.6131  155.7995 C.3     1  UNL1        0.0188
     32 C         143.0033  132.4681  156.9273 C.3     1  UNL1        0.0188
     33 C         143.4106  133.8431  157.3673 C.3     1  UNL1        0.0721
@<TRIPOS>BOND
     1     4     5    2
     2     5     6   am
     3     6    10    1
     4    10    11   ar
     5    11    12   ar
     6    12    13    1
     7    12    14   ar
     8    14    15   ar
     9    15    16   ar
    10    16    17    1
    11     5     7   am
    12     7     1    1
    13     1     2    2
    14     1     3    2
    15     1    18    1
    16    18    19   ar
    17    19    20   ar
    18    20    21   ar
    19    21    24    1
    20    24    25    1
    21    25    26    1
    22    26    27    1
    23    27    28    1
    24    28    29    1
    25    29    30    1
    26    30    31    1
    27    31    32    1
    28    32    33    1
    29    21    22   ar
    30    22    23   ar
    31    16    10   ar
    32    23    18   ar
    33    33    29    1
    34     6     8    1
    35     7     9    1
@<TRIPOS>MOLECULE
*****
 33 35 0 0 0
SMALL
GASTEIGER

@<TRIPOS>ATOM
      1 S         140.3687  144.3725  161.3694 S.O2    1  UNL1        0.0768
      2 O         139.1219  145.2028  161.4460 O.2     1  UNL1       -0.1498
      3 O         141.6156  143.5423  161.2927 O.2     1  UNL1       -0.1498
      4 O         140.0847  144.0128  158.4046 O.2     1  UNL1       -0.2509
      5 C         140.8347  145.1925  158.9485 C.2     1  UNL1        0.3232
      6 N         141.4427  146.1923  158.0101 N.am    1  UNL1       -0.2663
      7 N         140.9768  145.3723  160.4310 N.am    1  UNL1       -0.1690
      8 H         141.9350  146.9665  158.3671 H       1  UNL1        0.1565
      9 H         141.4690  146.1465  160.7880 H       1  UNL1        0.1781
     10 C         141.3007  146.0125  156.5276 C.ar    1  UNL1        0.0630
     11 C         142.3123  145.2049  155.7698 C.ar    1  UNL1        0.0270
     12 C         142.1703  145.0251  154.2874 C.ar    1  UNL1        0.0590
     13 CL        143.1819  144.2175  153.5295 Cl      1  UNL1       -0.0822
     14 C         141.0166  145.6529  153.5629 C.ar    1  UNL1        0.0123
     15 C         140.0049  146.4604  154.3208 C.ar    1  UNL1        0.0135
     16 C         140.1470  146.6402  155.8031 C.ar    1  UNL1        0.0712
     17 CL        139.1353  147.4478  156.5611 Cl      1  UNL1       -0.0810
     18 C         139.7607  143.3727  162.3078 C.ar    1  UNL1        0.1255
     19 C         140.6405  142.4196  163.0612 C.ar    1  UNL1        0.0233
     20 C         140.0324  141.4198  163.9997 C.ar    1  UNL1        0.0383
     21 C         138.5446  141.3731  164.1847 C.ar    1  UNL1        0.1386
     22 C         137.6649  142.3262  163.4313 C.ar    1  UNL1        0.0383
     23 C         138.2729  143.3260  162.4929 C.ar    1  UNL1        0.0233
     24 O         137.9366  140.3733  165.1232 O.3     1  UNL1       -0.4755
     25 C         138.7794  139.2719  165.6945 C.3     1  UNL1        0.2054
     26 C         138.8049  137.9263  165.0320 C.3     1  UNL1        0.0488
     27 C         139.3380  137.7873  163.6368 C.3     1  UNL1        0.0212
     28 C         138.4159  137.9371  162.4633 C.3     1  UNL1        0.0722
     29 N         138.6728  139.0021  161.4387 N.3     1  UNL1       -0.2727
     30 C         140.0160  139.4153  160.9141 C.3     1  UNL1        0.0721
     31 C         139.8050  140.5095  159.9101 C.3     1  UNL1        0.0188
     32 C         138.3314  140.7726  159.8141 C.3     1  UNL1        0.0188
     33 C         137.6317  139.8410  160.7588 C.3     1  UNL1        0.0721
@<TRIPOS>BOND
     1     4     5    2
     2     5     6   am
     3     6    10    1
     4    10    11   ar
     5    11    12   ar
     6    12    13    1
     7    12    14   ar
     8    14    15   ar
     9    15    16   ar
    10    16    17    1
    11     5     7   am
    12     7     1    1
    13     1     2    2
    14     1     3    2
    15     1    18    1
    16    18    19   ar
    17    19    20   ar
    18    20    21   ar
    19    21    24    1
    20    24    25    1
    21    25    26    1
    22    26    27    1
    23    27    28    1
    24    28    29    1
    25    29    30    1
    26    30    31    1
    27    31    32    1
    28    32    33    1
    29    21    22   ar
    30    22    23   ar
    31    16    10   ar
    32    23    18   ar
    33    33    29    1
    34     6     8    1
    35     7     9    1
@<TRIPOS>MOLECULE
*****
 33 35 0 0 0
SMALL
GASTEIGER

@<TRIPOS>ATOM
      1 S         141.6135  144.2932  162.3697 S.O2    1  UNL1        0.0768
      2 O         140.6720  145.4091  162.7133 O.2     1  UNL1       -0.1498
      3 O         142.5550  143.1772  162.0262 O.2     1  UNL1       -0.1498
      4 O         140.3536  143.8928  159.6767 O.2     1  UNL1       -0.2509
      5 C         141.4769  144.8732  159.8409 C.2     1  UNL1        0.3232
      6 N         141.9703  145.6534  158.6586 N.am    1  UNL1       -0.2663
      7 N         142.1069  145.0734  161.1875 N.am    1  UNL1       -0.1690
      8 H         142.7076  146.2969  158.7664 H       1  UNL1        0.1565
      9 H         142.8442  145.7168  161.2952 H       1  UNL1        0.1781
     10 C         141.3403  145.4533  157.3121 C.ar    1  UNL1        0.0630
     11 C         140.1957  146.3225  156.8829 C.ar    1  UNL1        0.0270
     12 C         139.5657  146.1223  155.5364 C.ar    1  UNL1        0.0590
     13 CL        138.4211  146.9916  155.1072 Cl      1  UNL1       -0.0822
     14 C         140.0805  145.0530  154.6191 C.ar    1  UNL1        0.0123
     15 C         141.2251  144.1837  155.0483 C.ar    1  UNL1        0.0135
     16 C         141.8550  144.3839  156.3948 C.ar    1  UNL1        0.0712
     17 CL        142.9997  143.5147  156.8240 Cl      1  UNL1       -0.0810
     18 C         141.1202  143.5129  163.5520 C.ar    1  UNL1        0.1255
     19 C         139.7051  143.6774  164.0216 C.ar    1  UNL1        0.0233
     20 C         139.2118  142.8972  165.2040 C.ar    1  UNL1        0.0383
     21 C         140.1335  141.9525  165.9166 C.ar    1  UNL1        0.1386
     22 C         141.5485  141.7880  165.4470 C.ar    1  UNL1        0.0383
     23 C         142.0419  142.5682  164.2647 C.ar    1  UNL1        0.0233
     24 O         139.6401  141.1722  167.0989 O.3     1  UNL1       -0.4755
     25 C         139.3463  139.7077  166.9614 C.3     1  UNL1        0.2054
     26 C         138.5149  139.2141  165.8146 C.3     1  UNL1        0.0488
     27 C         139.1778  138.6000  164.6173 C.3     1  UNL1        0.0212
     28 C         140.3520  137.6842  164.7975 C.3     1  UNL1        0.0722
     29 N         141.7472  138.2169  164.6564 N.3     1  UNL1       -0.2727
     30 C         142.3845  138.6937  163.3850 C.3     1  UNL1        0.0721
     31 C         143.7812  139.1377  163.7047 C.3     1  UNL1        0.0188
     32 C         144.0070  138.9353  165.1738 C.3     1  UNL1        0.0188
     33 C         142.7499  138.3662  165.7619 C.3     1  UNL1        0.0721
@<TRIPOS>BOND
     1     4     5    2
     2     5     6   am
     3     6    10    1
     4    10    11   ar
     5    11    12   ar
     6    12    13    1
     7    12    14   ar
     8    14    15   ar
     9    15    16   ar
    10    16    17    1
    11     5     7   am
    12     7     1    1
    13     1     2    2
    14     1     3    2
    15     1    18    1
    16    18    19   ar
    17    19    20   ar
    18    20    21   ar
    19    21    24    1
    20    24    25    1
    21    25    26    1
    22    26    27    1
    23    27    28    1
    24    28    29    1
    25    29    30    1
    26    30    31    1
    27    31    32    1
    28    32    33    1
    29    21    22   ar
    30    22    23   ar
    31    16    10   ar
    32    23    18   ar
    33    33    29    1
    34     6     8    1
    35     7     9    1
@<TRIPOS>MOLECULE
*****
 33 35 0 0 0
SMALL
GASTEIGER

@<TRIPOS>ATOM
      1 S         140.6870  144.6352  159.9798 S.O2    1  UNL1        0.0768
      2 O         141.4201  143.5155  159.3026 O.2     1  UNL1       -0.1498
      3 O         139.9539  145.7550  160.6570 O.2     1  UNL1       -0.1498
      4 O         141.6385  146.2105  157.6106 O.2     1  UNL1       -0.2509
      5 C         140.2807  145.5734  157.5913 C.2     1  UNL1        0.3232
      6 N         139.3986  145.7240  156.3875 N.am    1  UNL1       -0.2663
      7 N         139.8049  144.7858  158.7760 N.am    1  UNL1       -0.1690
      8 H         138.5074  145.3058  156.3748 H       1  UNL1        0.1565
      9 H         138.9137  144.3676  158.7633 H       1  UNL1        0.1781
     10 C         139.8744  146.5116  155.2028 C.ar    1  UNL1        0.0630
     11 C         139.4600  147.9439  155.0390 C.ar    1  UNL1        0.0270
     12 C         139.9357  148.7314  153.8544 C.ar    1  UNL1        0.0590
     13 CL        139.5213  150.1638  153.6905 Cl      1  UNL1       -0.0822
     14 C         140.8259  148.0868  152.8336 C.ar    1  UNL1        0.0123
     15 C         141.2403  146.6545  152.9974 C.ar    1  UNL1        0.0135
     16 C         140.7646  145.8669  154.1820 C.ar    1  UNL1        0.0712
     17 CL        141.1790  144.4346  154.3459 Cl      1  UNL1       -0.0810
     18 C         141.5691  144.4847  161.1836 C.ar    1  UNL1        0.1255
     19 C         141.2567  145.2399  162.4414 C.ar    1  UNL1        0.0233
     20 C         142.1388  145.0893  163.6453 C.ar    1  UNL1        0.0383
     21 C         143.3333  144.1836  163.5913 C.ar    1  UNL1        0.1386
     22 C         143.6457  143.4285  162.3335 C.ar    1  UNL1        0.0383
     23 C         142.7636  143.5790  161.1296 C.ar    1  UNL1        0.0233
     24 O         144.2154  144.0331  164.7951 O.3     1  UNL1       -0.4755
     25 C         143.8236  143.0968  165.8996 C.3     1  UNL1        0.2054
     26 C         143.0440  141.8537  165.5879 C.3     1  UNL1        0.0488
     27 C         141.6576  141.6813  166.1339 C.3     1  UNL1        0.0212
     28 C         140.7551  142.8707  166.2783 C.3     1  UNL1        0.0722
     29 N         139.7260  143.1634  165.2269 N.3     1  UNL1       -0.2727
     30 C         139.4407  142.3264  164.0153 C.3     1  UNL1        0.0721
     31 C         138.3399  142.9901  163.2421 C.3     1  UNL1        0.0188
     32 C         137.9449  144.2373  163.9759 C.3     1  UNL1        0.0188
     33 C         138.8016  144.3444  165.2026 C.3     1  UNL1        0.0721
@<TRIPOS>BOND
     1     4     5    2
     2     5     6   am
     3     6    10    1
     4    10    11   ar
     5    11    12   ar
     6    12    13    1
     7    12    14   ar
     8    14    15   ar
     9    15    16   ar
    10    16    17    1
    11     5     7   am
    12     7     1    1
    13     1     2    2
    14     1     3    2
    15     1    18    1
    16    18    19   ar
    17    19    20   ar
    18    20    21   ar
    19    21    24    1
    20    24    25    1
    21    25    26    1
    22    26    27    1
    23    27    28    1
    24    28    29    1
    25    29    30    1
    26    30    31    1
    27    31    32    1
    28    32    33    1
    29    21    22   ar
    30    22    23   ar
    31    16    10   ar
    32    23    18   ar
    33    33    29    1
    34     6     8    1
    35     7     9    1
