@<TRIPOS>MOLECULE
*****
 20 21 0 0 0
SMALL
GASTEIGER

@<TRIPOS>ATOM
      1 C         137.2380  137.8090  167.2301 C.3     1  UNL1        0.0310
      2 C         138.1133  138.9884  166.9255 C.ar    1  UNL1       -0.0219
      3 C         138.1528  139.5544  165.5370 C.ar    1  UNL1       -0.0011
      4 C         139.0281  140.7338  165.2324 C.ar    1  UNL1        0.0369
      5 C         139.8639  141.3473  166.3164 C.ar    1  UNL1        0.1425
      6 C         139.8243  140.7814  167.7050 C.ar    1  UNL1        0.0281
      7 C         138.9490  139.6020  168.0095 C.ar    1  UNL1       -0.0041
      8 O         140.7392  142.5268  166.0119 O.3     1  UNL1       -0.4537
      9 C         142.0828  142.3198  165.3781 C.ar    1  UNL1        0.1462
     10 C         142.8159  143.4825  164.7775 C.ar    1  UNL1        0.0384
     11 C         144.1596  143.2755  164.1437 C.ar    1  UNL1        0.0154
     12 C         144.7702  141.9058  164.1104 C.ar    1  UNL1        0.0684
     13 CL        146.1139  141.6987  163.4766 Cl      1  UNL1       -0.0814
     14 C         144.0371  140.7431  164.7110 C.ar    1  UNL1        0.0712
     15 CL        144.6477  139.3733  164.6777 Cl      1  UNL1       -0.0813
     16 C         142.6934  140.9500  165.3448 C.ar    1  UNL1        0.0497
     17 C         140.6601  141.3949  168.7890 C.3     1  UNL1        0.1023
     18 N         142.1201  141.0653  168.8878 N.3     1  UNL1       -0.2664
     19 C         142.5663  139.6333  168.9025 C.3     1  UNL1        0.0899
     20 C         143.1338  142.1677  168.9718 C.3     1  UNL1        0.0899
@<TRIPOS>BOND
     1     1     2    1
     2     2     3   ar
     3     3     4   ar
     4     4     5   ar
     5     5     8    1
     6     8     9    1
     7     9    10   ar
     8    10    11   ar
     9    11    12   ar
    10    12    13    1
    11    12    14   ar
    12    14    15    1
    13    14    16   ar
    14     5     6   ar
    15     6    17    1
    16    17    18    1
    17    18    19    1
    18    18    20    1
    19     6     7   ar
    20     7     2   ar
    21    16     9   ar
@<TRIPOS>MOLECULE
*****
 20 21 0 0 0
SMALL
GASTEIGER

@<TRIPOS>ATOM
      1 C         143.8852  138.0159  166.5996 C.3     1  UNL1        0.0310
      2 C         142.7109  138.9295  166.4088 C.ar    1  UNL1       -0.0219
      3 C         141.8129  138.7583  165.2196 C.ar    1  UNL1       -0.0011
      4 C         140.6386  139.6719  165.0288 C.ar    1  UNL1        0.0369
      5 C         140.3624  140.7567  166.0273 C.ar    1  UNL1        0.1425
      6 C         141.2604  140.9278  167.2164 C.ar    1  UNL1        0.0281
      7 C         142.4347  140.0142  167.4072 C.ar    1  UNL1       -0.0041
      8 O         139.1881  141.6703  165.8365 O.3     1  UNL1       -0.4537
      9 C         139.2781  142.8161  164.8727 C.ar    1  UNL1        0.1462
     10 C         138.0835  143.2005  164.0510 C.ar    1  UNL1        0.0384
     11 C         138.1735  144.3464  163.0871 C.ar    1  UNL1        0.0154
     12 C         139.4581  145.1077  162.9450 C.ar    1  UNL1        0.0684
     13 CL        139.5481  146.2536  161.9811 Cl      1  UNL1       -0.0814
     14 C         140.6527  144.7233  163.7667 C.ar    1  UNL1        0.0712
     15 CL        141.9373  145.4847  163.6245 Cl      1  UNL1       -0.0813
     16 C         140.5627  143.5775  164.7305 C.ar    1  UNL1        0.0497
     17 C         140.9842  142.0127  168.2149 C.3     1  UNL1        0.1023
     18 N         140.0843  141.7441  169.3845 N.3     1  UNL1       -0.2664
     19 C         139.9128  142.7828  170.4530 C.3     1  UNL1        0.0899
     20 C         139.3558  140.4367  169.4857 C.3     1  UNL1        0.0899
@<TRIPOS>BOND
     1     1     2    1
     2     2     3   ar
     3     3     4   ar
     4     4     5   ar
     5     5     8    1
     6     8     9    1
     7     9    10   ar
     8    10    11   ar
     9    11    12   ar
    10    12    13    1
    11    12    14   ar
    12    14    15    1
    13    14    16   ar
    14     5     6   ar
    15     6    17    1
    16    17    18    1
    17    18    19    1
    18    18    20    1
    19     6     7   ar
    20     7     2   ar
    21    16     9   ar
@<TRIPOS>MOLECULE
*****
 20 21 0 0 0
SMALL
GASTEIGER

@<TRIPOS>ATOM
      1 C         137.1019  137.7424  167.3258 C.3     1  UNL1        0.0310
      2 C         138.0956  138.8095  166.9737 C.ar    1  UNL1       -0.0219
      3 C         138.3696  139.1339  165.5351 C.ar    1  UNL1       -0.0011
      4 C         139.3633  140.2010  165.1830 C.ar    1  UNL1        0.0369
      5 C         140.0830  140.9436  166.2696 C.ar    1  UNL1        0.1425
      6 C         139.8089  140.6192  167.7081 C.ar    1  UNL1        0.0281
      7 C         138.8152  139.5521  168.0602 C.ar    1  UNL1       -0.0041
      8 O         141.0766  142.0107  165.9175 O.3     1  UNL1       -0.4537
      9 C         140.7214  143.0632  164.9096 C.ar    1  UNL1        0.1462
     10 C         139.5076  143.9200  165.1160 C.ar    1  UNL1        0.0384
     11 C         139.1524  144.9726  164.1080 C.ar    1  UNL1        0.0154
     12 C         140.0110  145.1684  162.8937 C.ar    1  UNL1        0.0684
     13 CL        139.6558  146.2210  161.8857 Cl      1  UNL1       -0.0814
     14 C         141.2248  144.3116  162.6873 C.ar    1  UNL1        0.0712
     15 CL        142.0834  144.5073  161.4730 Cl      1  UNL1       -0.0813
     16 C         141.5800  143.2590  163.6952 C.ar    1  UNL1        0.0497
     17 C         140.5286  141.3618  168.7948 C.3     1  UNL1        0.1023
     18 N         141.9145  140.9495  169.1940 N.3     1  UNL1       -0.2664
     19 C         142.1558  139.5826  169.7627 C.3     1  UNL1        0.0899
     20 C         143.0590  141.9041  169.0244 C.3     1  UNL1        0.0899
@<TRIPOS>BOND
     1     1     2    1
     2     2     3   ar
     3     3     4   ar
     4     4     5   ar
     5     5     8    1
     6     8     9    1
     7     9    10   ar
     8    10    11   ar
     9    11    12   ar
    10    12    13    1
    11    12    14   ar
    12    14    15    1
    13    14    16   ar
    14     5     6   ar
    15     6    17    1
    16    17    18    1
    17    18    19    1
    18    18    20    1
    19     6     7   ar
    20     7     2   ar
    21    16     9   ar
@<TRIPOS>MOLECULE
*****
 20 21 0 0 0
SMALL
GASTEIGER

@<TRIPOS>ATOM
      1 C         137.0850  137.9162  167.3191 C.3     1  UNL1        0.0310
      2 C         138.3339  138.3415  166.6053 C.ar    1  UNL1       -0.0219
      3 C         139.0913  139.5486  167.0737 C.ar    1  UNL1       -0.0011
      4 C         140.3402  139.9739  166.3600 C.ar    1  UNL1        0.0369
      5 C         140.8317  139.1921  165.1779 C.ar    1  UNL1        0.1425
      6 C         140.0743  137.9851  164.7096 C.ar    1  UNL1        0.0281
      7 C         138.8254  137.5598  165.4233 C.ar    1  UNL1       -0.0041
      8 O         142.0806  139.6174  164.4642 O.3     1  UNL1       -0.4537
      9 C         142.3954  141.0756  164.3077 C.ar    1  UNL1        0.1462
     10 C         141.6251  141.9080  163.3260 C.ar    1  UNL1        0.0384
     11 C         141.9399  143.3663  163.1695 C.ar    1  UNL1        0.0154
     12 C         143.0250  143.9921  163.9947 C.ar    1  UNL1        0.0684
     13 CL        143.3399  145.4503  163.8382 Cl      1  UNL1       -0.0814
     14 C         143.7953  143.1596  164.9764 C.ar    1  UNL1        0.0712
     15 CL        144.8805  143.7855  165.8016 Cl      1  UNL1       -0.0813
     16 C         143.4805  141.7015  165.1329 C.ar    1  UNL1        0.0497
     17 C         140.5658  137.2033  163.5275 C.3     1  UNL1        0.1023
     18 N         140.4061  137.7575  162.1428 N.3     1  UNL1       -0.2664
     19 C         141.6166  138.0295  161.2996 C.3     1  UNL1        0.0899
     20 C         139.0361  138.0398  161.6013 C.3     1  UNL1        0.0899
@<TRIPOS>BOND
     1     1     2    1
     2     2     3   ar
     3     3     4   ar
     4     4     5   ar
     5     5     8    1
     6     8     9    1
     7     9    10   ar
     8    10    11   ar
     9    11    12   ar
    10    12    13    1
    11    12    14   ar
    12    14    15    1
    13    14    16   ar
    14     5     6   ar
    15     6    17    1
    16    17    18    1
    17    18    19    1
    18    18    20    1
    19     6     7   ar
    20     7     2   ar
    21    16     9   ar
@<TRIPOS>MOLECULE
*****
 20 21 0 0 0
SMALL
GASTEIGER

@<TRIPOS>ATOM
      1 C         138.5821  140.2296  170.3417 C.3     1  UNL1        0.0310
      2 C         139.4200  140.7452  169.2094 C.ar    1  UNL1       -0.0219
      3 C         140.1035  142.0752  169.3272 C.ar    1  UNL1       -0.0011
      4 C         140.9413  142.5908  168.1948 C.ar    1  UNL1        0.0369
      5 C         141.0956  141.7764  166.9447 C.ar    1  UNL1        0.1425
      6 C         140.4121  140.4464  166.8269 C.ar    1  UNL1        0.0281
      7 C         139.5743  139.9308  167.9592 C.ar    1  UNL1       -0.0041
      8 O         141.9335  142.2920  165.8123 O.3     1  UNL1       -0.4537
      9 C         141.3501  143.2634  164.8295 C.ar    1  UNL1        0.1462
     10 C         142.2529  144.1611  164.0363 C.ar    1  UNL1        0.0384
     11 C         141.6694  145.1325  163.0534 C.ar    1  UNL1        0.0154
     12 C         140.1833  145.2063  162.8638 C.ar    1  UNL1        0.0684
     13 CL        139.5999  146.1777  161.8809 Cl      1  UNL1       -0.0814
     14 C         139.2806  144.3086  163.6571 C.ar    1  UNL1        0.0712
     15 CL        137.7944  144.3824  163.4674 Cl      1  UNL1       -0.0813
     16 C         139.8639  143.3372  164.6399 C.ar    1  UNL1        0.0497
     17 C         140.5664  139.6320  165.5767 C.3     1  UNL1        0.1023
     18 N         139.3527  139.1048  164.8704 N.3     1  UNL1       -0.2664
     19 C         139.2104  137.6324  164.6210 C.3     1  UNL1        0.0899
     20 C         138.2812  140.0498  164.4136 C.3     1  UNL1        0.0899
@<TRIPOS>BOND
     1     1     2    1
     2     2     3   ar
     3     3     4   ar
     4     4     5   ar
     5     5     8    1
     6     8     9    1
     7     9    10   ar
     8    10    11   ar
     9    11    12   ar
    10    12    13    1
    11    12    14   ar
    12    14    15    1
    13    14    16   ar
    14     5     6   ar
    15     6    17    1
    16    17    18    1
    17    18    19    1
    18    18    20    1
    19     6     7   ar
    20     7     2   ar
    21    16     9   ar
@<TRIPOS>MOLECULE
*****
 20 21 0 0 0
SMALL
GASTEIGER

@<TRIPOS>ATOM
      1 C         143.9778  138.8662  161.1310 C.3     1  UNL1        0.0310
      2 C         143.6614  138.8503  162.5972 C.ar    1  UNL1       -0.0219
      3 C         144.6902  139.3010  163.5914 C.ar    1  UNL1       -0.0011
      4 C         144.3737  139.2851  165.0576 C.ar    1  UNL1        0.0369
      5 C         143.0286  138.8186  165.5295 C.ar    1  UNL1        0.1425
      6 C         141.9998  138.3679  164.5353 C.ar    1  UNL1        0.0281
      7 C         142.3162  138.3838  163.0691 C.ar    1  UNL1       -0.0041
      8 O         142.7121  138.8027  166.9957 O.3     1  UNL1       -0.4537
      9 C         142.1164  140.0152  167.6475 C.ar    1  UNL1        0.1462
     10 C         142.7533  141.3595  167.4549 C.ar    1  UNL1        0.0384
     11 C         142.1575  142.5720  168.1068 C.ar    1  UNL1        0.0154
     12 C         140.9249  142.4402  168.9513 C.ar    1  UNL1        0.0684
     13 CL        140.3290  143.6527  169.6032 Cl      1  UNL1       -0.0814
     14 C         140.2880  141.0958  169.1439 C.ar    1  UNL1        0.0712
     15 CL        139.0552  140.9640  169.9884 Cl      1  UNL1       -0.0813
     16 C         140.8837  139.8834  168.4920 C.ar    1  UNL1        0.0497
     17 C         140.6545  137.9014  165.0072 C.3     1  UNL1        0.1023
     18 N         139.5575  138.8958  165.2469 N.3     1  UNL1       -0.2664
     19 C         138.3151  138.4803  165.9778 C.3     1  UNL1        0.0899
     20 C         139.7026  140.3056  164.7558 C.3     1  UNL1        0.0899
@<TRIPOS>BOND
     1     1     2    1
     2     2     3   ar
     3     3     4   ar
     4     4     5   ar
     5     5     8    1
     6     8     9    1
     7     9    10   ar
     8    10    11   ar
     9    11    12   ar
    10    12    13    1
    11    12    14   ar
    12    14    15    1
    13    14    16   ar
    14     5     6   ar
    15     6    17    1
    16    17    18    1
    17    18    19    1
    18    18    20    1
    19     6     7   ar
    20     7     2   ar
    21    16     9   ar
@<TRIPOS>MOLECULE
*****
 20 21 0 0 0
SMALL
GASTEIGER

@<TRIPOS>ATOM
      1 C         137.1119  137.7566  167.3638 C.3     1  UNL1        0.0310
      2 C         138.1628  138.7083  166.8741 C.ar    1  UNL1       -0.0219
      3 C         138.7582  139.7159  167.8124 C.ar    1  UNL1       -0.0011
      4 C         139.8091  140.6675  167.3226 C.ar    1  UNL1        0.0369
      5 C         140.2647  140.6116  165.8946 C.ar    1  UNL1        0.1425
      6 C         139.6694  139.6041  164.9564 C.ar    1  UNL1        0.0281
      7 C         138.6184  138.6524  165.4461 C.ar    1  UNL1       -0.0041
      8 O         141.3157  141.5633  165.4049 O.3     1  UNL1       -0.4537
      9 C         140.9260  142.7437  164.5654 C.ar    1  UNL1        0.1462
     10 C         141.9828  143.6594  164.0224 C.ar    1  UNL1        0.0384
     11 C         141.5930  144.8399  163.1829 C.ar    1  UNL1        0.0154
     12 C         140.1467  145.1046  162.8865 C.ar    1  UNL1        0.0684
     13 CL        139.7570  146.2851  162.0470 Cl      1  UNL1       -0.0814
     14 C         139.0900  144.1890  163.4295 C.ar    1  UNL1        0.0712
     15 CL        137.6435  144.4538  163.1331 Cl      1  UNL1       -0.0813
     16 C         139.4796  143.0085  164.2690 C.ar    1  UNL1        0.0497
     17 C         140.1250  139.5481  163.5283 C.3     1  UNL1        0.1023
     18 N         141.3548  138.7707  163.1633 N.3     1  UNL1       -0.2664
     19 C         141.3183  137.2712  163.1521 C.3     1  UNL1        0.0899
     20 C         142.6210  139.4928  162.8094 C.3     1  UNL1        0.0899
@<TRIPOS>BOND
     1     1     2    1
     2     2     3   ar
     3     3     4   ar
     4     4     5   ar
     5     5     8    1
     6     8     9    1
     7     9    10   ar
     8    10    11   ar
     9    11    12   ar
    10    12    13    1
    11    12    14   ar
    12    14    15    1
    13    14    16   ar
    14     5     6   ar
    15     6    17    1
    16    17    18    1
    17    18    19    1
    18    18    20    1
    19     6     7   ar
    20     7     2   ar
    21    16     9   ar
@<TRIPOS>MOLECULE
*****
 20 21 0 0 0
SMALL
GASTEIGER

@<TRIPOS>ATOM
      1 C         143.8745  142.2058  170.2409 C.3     1  UNL1        0.0310
      2 C         142.7701  142.1787  169.2262 C.ar    1  UNL1       -0.0219
      3 C         141.5482  143.0257  169.4248 C.ar    1  UNL1       -0.0011
      4 C         140.4438  142.9986  168.4102 C.ar    1  UNL1        0.0369
      5 C         140.5613  142.1244  167.1969 C.ar    1  UNL1        0.1425
      6 C         141.7832  141.2774  166.9983 C.ar    1  UNL1        0.0281
      7 C         142.8876  141.3046  168.0130 C.ar    1  UNL1       -0.0041
      8 O         139.4569  142.0973  166.1823 O.3     1  UNL1       -0.4537
      9 C         139.4286  143.1111  165.0772 C.ar    1  UNL1        0.1462
     10 C         138.1507  143.3810  164.3395 C.ar    1  UNL1        0.0384
     11 C         138.1225  144.3949  163.2343 C.ar    1  UNL1        0.0154
     12 C         139.3721  145.1389  162.8670 C.ar    1  UNL1        0.0684
     13 CL        139.3438  146.1528  161.7619 Cl      1  UNL1       -0.0814
     14 C         140.6499  144.8691  163.6047 C.ar    1  UNL1        0.0712
     15 CL        141.8995  145.6131  163.2373 Cl      1  UNL1       -0.0813
     16 C         140.6782  143.8552  164.7098 C.ar    1  UNL1        0.0497
     17 C         141.9007  140.4032  165.7850 C.3     1  UNL1        0.1023
     18 N         143.1979  140.3313  165.0353 N.3     1  UNL1       -0.2664
     19 C         143.7288  141.5478  164.3365 C.3     1  UNL1        0.0899
     20 C         143.9642  139.0428  164.9842 C.3     1  UNL1        0.0899
@<TRIPOS>BOND
     1     1     2    1
     2     2     3   ar
     3     3     4   ar
     4     4     5   ar
     5     5     8    1
     6     8     9    1
     7     9    10   ar
     8    10    11   ar
     9    11    12   ar
    10    12    13    1
    11    12    14   ar
    12    14    15    1
    13    14    16   ar
    14     5     6   ar
    15     6    17    1
    16    17    18    1
    17    18    19    1
    18    18    20    1
    19     6     7   ar
    20     7     2   ar
    21    16     9   ar
@<TRIPOS>MOLECULE
*****
 20 21 0 0 0
SMALL
GASTEIGER

@<TRIPOS>ATOM
      1 C         143.8698  142.4273  169.9318 C.3     1  UNL1        0.0310
      2 C         142.8660  142.4975  168.8194 C.ar    1  UNL1       -0.0219
      3 C         141.4176  142.7334  169.1300 C.ar    1  UNL1       -0.0011
      4 C         140.4138  142.8037  168.0176 C.ar    1  UNL1        0.0369
      5 C         140.8584  142.6381  166.5946 C.ar    1  UNL1        0.1425
      6 C         142.3068  142.4022  166.2840 C.ar    1  UNL1        0.0281
      7 C         143.3106  142.3319  167.3964 C.ar    1  UNL1       -0.0041
      8 O         139.8546  142.7083  165.4822 O.3     1  UNL1       -0.4537
      9 C         139.4691  141.4631  164.7400 C.ar    1  UNL1        0.1462
     10 C         139.2594  141.5094  163.2555 C.ar    1  UNL1        0.0384
     11 C         138.8739  140.2641  162.5133 C.ar    1  UNL1        0.0154
     12 C         138.6983  138.9726  163.2557 C.ar    1  UNL1        0.0684
     13 CL        138.3128  137.7273  162.5135 Cl      1  UNL1       -0.0814
     14 C         138.9080  138.9263  164.7402 C.ar    1  UNL1        0.0712
     15 CL        138.7324  137.6348  165.4825 Cl      1  UNL1       -0.0813
     16 C         139.2935  140.1715  165.4824 C.ar    1  UNL1        0.0497
     17 C         142.7514  142.2366  164.8610 C.3     1  UNL1        0.1023
     18 N         143.9309  143.0089  164.3491 N.3     1  UNL1       -0.2664
     19 C         143.8431  144.4986  164.1967 C.3     1  UNL1        0.0899
     20 C         145.1983  142.2917  163.9895 C.3     1  UNL1        0.0899
@<TRIPOS>BOND
     1     1     2    1
     2     2     3   ar
     3     3     4   ar
     4     4     5   ar
     5     5     8    1
     6     8     9    1
     7     9    10   ar
     8    10    11   ar
     9    11    12   ar
    10    12    13    1
    11    12    14   ar
    12    14    15    1
    13    14    16   ar
    14     5     6   ar
    15     6    17    1
    16    17    18    1
    17    18    19    1
    18    18    20    1
    19     6     7   ar
    20     7     2   ar
    21    16     9   ar
