@<TRIPOS>MOLECULE
*****
 28 32 0 0 0
SMALL
GASTEIGER

@<TRIPOS>ATOM
      1 C         140.3137  141.4724  167.5589 C.ar    1  UNL1        0.0620
      2 C         140.4647  141.9035  168.9876 C.ar    1  UNL1        0.0901
      3 CL        141.3485  143.0658  169.3309 Cl      1  UNL1       -0.0793
      4 C         139.7318  141.1722  170.0731 C.ar    1  UNL1        0.1115
      5 N         138.8480  140.0099  169.7298 N.ar    1  UNL1       -0.2413
      6 C         138.6971  139.5788  168.3009 C.ar    1  UNL1        0.1006
      7 C         139.4299  140.3101  167.2155 C.ar    1  UNL1        0.0393
      8 O         140.5524  145.2970  163.5001 O.2     1  UNL1       -0.2751
      9 C         141.9483  144.7519  163.4347 C.2     1  UNL1        0.2217
     10 N         143.0253  145.1968  162.4901 N.am    1  UNL1       -0.3043
     11 C         144.2549  144.3860  162.7741 C.3     1  UNL1        0.0899
     12 C         143.9379  143.4399  163.8942 C.3     1  UNL1        0.0300
     13 C         142.5123  143.6661  164.3025 C.3     1  UNL1        0.0737
     14 C         143.2108  142.5983  165.0911 C.3     1  UNL1        0.0301
     15 C         142.4779  141.8671  166.1766 C.3     1  UNL1        0.0913
     16 N         141.0466  142.2037  166.4734 N.pl3   1  UNL1       -0.3067
     17 C         140.3482  143.2714  165.6847 C.3     1  UNL1        0.0913
     18 C         141.0810  144.0026  164.5993 C.3     1  UNL1        0.0301
     19 H         142.9400  145.8979  161.8042 H       1  UNL1        0.1494
     20 C         139.2790  139.8790  165.7867 C.ar    1  UNL1        0.0322
     21 C         138.2852  140.4211  164.8025 C.ar    1  UNL1        0.0071
     22 C         138.4873  139.7073  163.4988 C.ar    1  UNL1        0.0065
     23 C         137.7973  139.8256  162.1722 C.ar    1  UNL1        0.0005
     24 C         138.2259  138.9608  161.0241 C.ar    1  UNL1        0.0000
     25 C         139.3446  137.9776  161.2025 C.ar    1  UNL1        0.0005
     26 C         140.0347  137.8592  162.5291 C.ar    1  UNL1        0.0065
     27 C         139.6061  138.7241  163.6772 C.ar    1  UNL1        0.0295
     28 S         140.0953  138.8302  165.0912 S.2     1  UNL1       -0.0868
@<TRIPOS>BOND
     1     8     9    2
     2     9    10   am
     3    10    11    1
     4    11    12    1
     5    12    13    1
     6    13    14    1
     7    14    15    1
     8    15    16    1
     9    16     1    1
    10     1     2   ar
    11     2     3    1
    12     2     4   ar
    13     4     5   ar
    14     5     6   ar
    15     6     7   ar
    16     7    20    1
    17    20    21   ar
    18    21    22   ar
    19    22    23   ar
    20    23    24   ar
    21    24    25   ar
    22    25    26   ar
    23    26    27   ar
    24    27    28   ar
    25    16    17    1
    26    17    18    1
    27    13     9    1
    28     7     1   ar
    29    28    20   ar
    30    18    13    1
    31    27    22   ar
    32    10    19    1
@<TRIPOS>MOLECULE
*****
 28 32 0 0 0
SMALL
GASTEIGER

@<TRIPOS>ATOM
      1 C         141.0866  140.7626  167.9537 C.ar    1  UNL1        0.0620
      2 C         141.5154  141.0539  169.3612 C.ar    1  UNL1        0.0901
      3 CL        142.8487  141.6894  169.6228 Cl      1  UNL1       -0.0793
      4 C         140.6109  140.7096  170.5073 C.ar    1  UNL1        0.1115
      5 N         139.2776  140.0740  170.2457 N.ar    1  UNL1       -0.2413
      6 C         138.8488  139.7828  168.8381 C.ar    1  UNL1        0.1006
      7 C         139.7533  140.1270  167.6921 C.ar    1  UNL1        0.0393
      8 O         143.1145  144.3592  164.1973 O.2     1  UNL1       -0.2751
      9 C         143.9007  143.1321  163.8424 C.2     1  UNL1        0.2217
     10 N         144.9255  143.0262  162.7523 N.am    1  UNL1       -0.3043
     11 C         145.4584  141.6240  162.7516 C.3     1  UNL1        0.0899
     12 C         144.7627  140.8632  163.8413 C.3     1  UNL1        0.0300
     13 C         143.8000  141.7953  164.5155 C.3     1  UNL1        0.0737
     14 C         143.8092  140.4089  165.0879 C.3     1  UNL1        0.0301
     15 C         142.9047  140.0647  166.2339 C.3     1  UNL1        0.0913
     16 N         141.9911  141.1069  166.8076 N.pl3   1  UNL1       -0.3067
     17 C         141.9819  142.4933  166.2352 C.3     1  UNL1        0.0913
     18 C         142.8864  142.8375  165.0892 C.3     1  UNL1        0.0301
     19 H         145.2003  143.7499  162.1440 H       1  UNL1        0.1494
     20 C         139.3245  139.8358  166.2844 C.ar    1  UNL1        0.0322
     21 C         139.5040  138.5349  165.5594 C.ar    1  UNL1        0.0071
     22 C         138.9314  138.6893  164.1816 C.ar    1  UNL1        0.0065
     23 C         138.8267  137.7389  163.0259 C.ar    1  UNL1        0.0005
     24 C         138.1888  138.1848  161.7436 C.ar    1  UNL1        0.0000
     25 C         137.6555  139.5810  161.6171 C.ar    1  UNL1        0.0005
     26 C         137.7602  140.5315  162.7729 C.ar    1  UNL1        0.0065
     27 C         138.3981  140.0856  164.0551 C.ar    1  UNL1        0.0295
     28 S         138.6411  140.7941  165.3547 S.2     1  UNL1       -0.0868
@<TRIPOS>BOND
     1     8     9    2
     2     9    10   am
     3    10    11    1
     4    11    12    1
     5    12    13    1
     6    13    14    1
     7    14    15    1
     8    15    16    1
     9    16     1    1
    10     1     2   ar
    11     2     3    1
    12     2     4   ar
    13     4     5   ar
    14     5     6   ar
    15     6     7   ar
    16     7    20    1
    17    20    21   ar
    18    21    22   ar
    19    22    23   ar
    20    23    24   ar
    21    24    25   ar
    22    25    26   ar
    23    26    27   ar
    24    27    28   ar
    25    16    17    1
    26    17    18    1
    27    13     9    1
    28     7     1   ar
    29    28    20   ar
    30    18    13    1
    31    27    22   ar
    32    10    19    1
@<TRIPOS>MOLECULE
*****
 28 32 0 0 0
SMALL
GASTEIGER

@<TRIPOS>ATOM
      1 C         141.0247  141.1012  167.7813 C.ar    1  UNL1        0.0620
      2 C         141.4216  141.4793  169.1775 C.ar    1  UNL1        0.0901
      3 CL        142.6639  142.2868  169.4114 Cl      1  UNL1       -0.0793
      4 C         140.5763  141.0499  170.3399 C.ar    1  UNL1        0.1115
      5 N         139.3340  140.2424  170.1060 N.ar    1  UNL1       -0.2413
      6 C         138.9371  139.8643  168.7097 C.ar    1  UNL1        0.1006
      7 C         139.7824  140.2937  167.5474 C.ar    1  UNL1        0.0393
      8 O         145.2095  140.2886  164.1777 O.2     1  UNL1       -0.2751
      9 C         144.7071  141.6211  163.7064 C.2     1  UNL1        0.2217
     10 N         145.2630  142.4193  162.5645 N.am    1  UNL1       -0.3043
     11 C         144.4601  143.6808  162.4466 C.3     1  UNL1        0.0899
     12 C         143.4079  143.6623  163.5157 C.3     1  UNL1        0.0300
     13 C         143.5606  142.3893  164.2943 C.3     1  UNL1        0.0737
     14 C         142.4427  143.2671  164.7733 C.3     1  UNL1        0.0301
     15 C         141.5974  142.8377  165.9357 C.3     1  UNL1        0.0913
     16 N         141.8701  141.5305  166.6189 N.pl3   1  UNL1       -0.3067
     17 C         142.9880  140.6527  166.1399 C.3     1  UNL1        0.0913
     18 C         143.8333  141.0821  164.9775 C.3     1  UNL1        0.0301
     19 H         146.0216  142.1606  161.9928 H       1  UNL1        0.1494
     20 C         139.3855  139.9156  166.1511 C.ar    1  UNL1        0.0322
     21 C         139.7222  138.6294  165.4565 C.ar    1  UNL1        0.0071
     22 C         139.1271  138.6761  164.0805 C.ar    1  UNL1        0.0065
     23 C         139.1356  137.6911  162.9492 C.ar    1  UNL1        0.0005
     24 C         138.4396  138.0212  161.6621 C.ar    1  UNL1        0.0000
     25 C         137.7351  139.3362  161.5062 C.ar    1  UNL1        0.0005
     26 C         137.7265  140.3212  162.6375 C.ar    1  UNL1        0.0065
     27 C         138.4225  139.9912  163.9246 C.ar    1  UNL1        0.0295
     28 S         138.5822  140.7572  165.2044 S.2     1  UNL1       -0.0868
@<TRIPOS>BOND
     1     8     9    2
     2     9    10   am
     3    10    11    1
     4    11    12    1
     5    12    13    1
     6    13    14    1
     7    14    15    1
     8    15    16    1
     9    16     1    1
    10     1     2   ar
    11     2     3    1
    12     2     4   ar
    13     4     5   ar
    14     5     6   ar
    15     6     7   ar
    16     7    20    1
    17    20    21   ar
    18    21    22   ar
    19    22    23   ar
    20    23    24   ar
    21    24    25   ar
    22    25    26   ar
    23    26    27   ar
    24    27    28   ar
    25    16    17    1
    26    17    18    1
    27    13     9    1
    28     7     1   ar
    29    28    20   ar
    30    18    13    1
    31    27    22   ar
    32    10    19    1
@<TRIPOS>MOLECULE
*****
 28 32 0 0 0
SMALL
GASTEIGER

@<TRIPOS>ATOM
      1 C         141.3208  140.8369  167.3680 C.ar    1  UNL1        0.0620
      2 C         141.0425  141.1052  168.8173 C.ar    1  UNL1        0.0901
      3 CL        140.0858  142.1923  169.2087 Cl      1  UNL1       -0.0793
      4 C         141.7210  140.2865  169.8754 C.ar    1  UNL1        0.1115
      5 N         142.6776  139.1995  169.4841 N.ar    1  UNL1       -0.2413
      6 C         142.9559  138.9312  168.0347 C.ar    1  UNL1        0.1006
      7 C         142.2774  139.7499  166.9767 C.ar    1  UNL1        0.0393
      8 O         137.1893  141.7049  163.7162 O.2     1  UNL1       -0.2751
      9 C         138.0101  142.9394  163.4880 C.2     1  UNL1        0.2217
     10 N         137.6998  144.0370  162.5138 N.am    1  UNL1       -0.3043
     11 C         138.7834  145.0691  162.6176 C.3     1  UNL1        0.0899
     12 C         139.7634  144.6093  163.6560 C.3     1  UNL1        0.0300
     13 C         139.2856  143.2931  164.1939 C.3     1  UNL1        0.0737
     14 C         140.5631  143.7775  164.8128 C.3     1  UNL1        0.0301
     15 C         141.2415  142.9588  165.8709 C.3     1  UNL1        0.0913
     16 N         140.6423  141.6557  166.3100 N.pl3   1  UNL1       -0.3067
     17 C         139.3647  141.1713  165.6910 C.3     1  UNL1        0.0913
     18 C         138.6864  141.9900  164.6330 C.3     1  UNL1        0.0301
     19 H         136.9215  144.0735  161.9119 H       1  UNL1        0.1494
     20 C         142.5557  139.4816  165.5273 C.ar    1  UNL1        0.0322
     21 C         143.5783  140.1810  164.6817 C.ar    1  UNL1        0.0071
     22 C         143.5148  139.5985  163.3009 C.ar    1  UNL1        0.0065
     23 C         144.2867  139.8959  162.0496 C.ar    1  UNL1        0.0005
     24 C         143.9967  139.1339  160.7905 C.ar    1  UNL1        0.0000
     25 C         142.9349  138.0745  160.7828 C.ar    1  UNL1        0.0005
     26 C         142.1630  137.7770  162.0341 C.ar    1  UNL1        0.0065
     27 C         142.4529  138.5391  163.2931 C.ar    1  UNL1        0.0295
     28 S         141.8602  138.4668  164.6692 S.2     1  UNL1       -0.0868
@<TRIPOS>BOND
     1     8     9    2
     2     9    10   am
     3    10    11    1
     4    11    12    1
     5    12    13    1
     6    13    14    1
     7    14    15    1
     8    15    16    1
     9    16     1    1
    10     1     2   ar
    11     2     3    1
    12     2     4   ar
    13     4     5   ar
    14     5     6   ar
    15     6     7   ar
    16     7    20    1
    17    20    21   ar
    18    21    22   ar
    19    22    23   ar
    20    23    24   ar
    21    24    25   ar
    22    25    26   ar
    23    26    27   ar
    24    27    28   ar
    25    16    17    1
    26    17    18    1
    27    13     9    1
    28     7     1   ar
    29    28    20   ar
    30    18    13    1
    31    27    22   ar
    32    10    19    1
@<TRIPOS>MOLECULE
*****
 28 32 0 0 0
SMALL
GASTEIGER

@<TRIPOS>ATOM
      1 C         140.4429  140.5739  167.4876 C.ar    1  UNL1        0.0620
      2 C         139.7409  140.2512  168.7733 C.ar    1  UNL1        0.0901
      3 CL        138.3959  139.5877  168.7473 Cl      1  UNL1       -0.0793
      4 C         140.3838  140.5920  170.0850 C.ar    1  UNL1        0.1115
      5 N         141.7288  141.2556  170.1110 N.ar    1  UNL1       -0.2413
      6 C         142.4309  141.5783  168.8253 C.ar    1  UNL1        0.1006
      7 C         141.7879  141.2375  167.5136 C.ar    1  UNL1        0.0393
      8 O         137.1925  141.8358  163.1286 O.2     1  UNL1       -0.2751
      9 C         137.6112  140.4448  162.7548 C.2     1  UNL1        0.2217
     10 N         137.2003  139.7029  161.5175 N.am    1  UNL1       -0.3043
     11 C         137.8494  138.3510  161.5506 C.3     1  UNL1        0.0899
     12 C         138.6615  138.2574  162.8084 C.3     1  UNL1        0.0300
     13 C         138.5142  139.5514  163.5526 C.3     1  UNL1        0.0737
     14 C         139.3978  138.5511  164.2371 C.3     1  UNL1        0.0301
     15 C         140.0407  138.8919  165.5488 C.3     1  UNL1        0.0913
     16 N         139.8000  140.2331  166.1759 N.pl3   1  UNL1       -0.3067
     17 C         138.9164  141.2334  165.4914 C.3     1  UNL1        0.0913
     18 C         138.2735  140.8926  164.1798 C.3     1  UNL1        0.0301
     19 H         136.6085  140.0434  160.8083 H       1  UNL1        0.1494
     20 C         142.4900  141.5602  166.2279 C.ar    1  UNL1        0.0322
     21 C         143.3962  140.6413  165.4634 C.ar    1  UNL1        0.0071
     22 C         143.8754  141.3716  164.2440 C.ar    1  UNL1        0.0065
     23 C         144.7884  140.9659  163.1252 C.ar    1  UNL1        0.0005
     24 C         145.0914  141.9305  162.0171 C.ar    1  UNL1        0.0000
     25 C         144.4813  143.3008  162.0279 C.ar    1  UNL1        0.0005
     26 C         143.5683  143.7065  163.1468 C.ar    1  UNL1        0.0065
     27 C         143.2653  142.7419  164.2548 C.ar    1  UNL1        0.0295
     28 S         142.4091  142.8585  165.4809 S.2     1  UNL1       -0.0868
@<TRIPOS>BOND
     1     8     9    2
     2     9    10   am
     3    10    11    1
     4    11    12    1
     5    12    13    1
     6    13    14    1
     7    14    15    1
     8    15    16    1
     9    16     1    1
    10     1     2   ar
    11     2     3    1
    12     2     4   ar
    13     4     5   ar
    14     5     6   ar
    15     6     7   ar
    16     7    20    1
    17    20    21   ar
    18    21    22   ar
    19    22    23   ar
    20    23    24   ar
    21    24    25   ar
    22    25    26   ar
    23    26    27   ar
    24    27    28   ar
    25    16    17    1
    26    17    18    1
    27    13     9    1
    28     7     1   ar
    29    28    20   ar
    30    18    13    1
    31    27    22   ar
    32    10    19    1
@<TRIPOS>MOLECULE
*****
 28 32 0 0 0
SMALL
GASTEIGER

@<TRIPOS>ATOM
      1 C         141.6125  140.0454  167.6506 C.ar    1  UNL1        0.0620
      2 C         142.1769  139.3618  168.8605 C.ar    1  UNL1        0.0901
      3 CL        143.2735  138.3499  168.7070 Cl      1  UNL1       -0.0793
      4 C         141.6448  139.6901  170.2241 C.ar    1  UNL1        0.1115
      5 N         140.5482  140.7020  170.3776 N.ar    1  UNL1       -0.2413
      6 C         139.9838  141.3856  169.1675 C.ar    1  UNL1        0.1006
      7 C         140.5159  141.0573  167.8041 C.ar    1  UNL1        0.0393
      8 O         145.1534  140.8890  163.4187 O.2     1  UNL1       -0.2751
      9 C         144.3472  139.7502  162.8683 C.2     1  UNL1        0.2217
     10 N         144.5379  139.1009  161.5297 N.am    1  UNL1       -0.3043
     11 C         143.5173  138.0100  161.3940 C.3     1  UNL1        0.0899
     12 C         142.6958  137.9851  162.6489 C.3     1  UNL1        0.0300
     13 C         143.2087  139.0606  163.5601 C.3     1  UNL1        0.0737
     14 C         142.0588  138.2800  164.1243 C.3     1  UNL1        0.0301
     15 C         141.5268  138.6083  165.4878 C.3     1  UNL1        0.0913
     16 N         142.1446  139.7172  166.2870 N.pl3   1  UNL1       -0.3067
     17 C         143.2945  140.4977  165.7228 C.3     1  UNL1        0.0913
     18 C         143.8266  140.1694  164.3593 C.3     1  UNL1        0.0301
     19 H         145.2142  139.3474  160.8580 H       1  UNL1        0.1494
     20 C         139.9514  141.7409  166.5940 C.ar    1  UNL1        0.0322
     21 C         138.9882  141.1423  165.6122 C.ar    1  UNL1        0.0071
     22 C         138.6925  142.1745  164.5648 C.ar    1  UNL1        0.0065
     23 C         137.8135  142.1483  163.3496 C.ar    1  UNL1        0.0005
     24 C         137.7149  143.3585  162.4690 C.ar    1  UNL1        0.0000
     25 C         138.4953  144.5951  162.8035 C.ar    1  UNL1        0.0005
     26 C         139.3744  144.6214  164.0186 C.ar    1  UNL1        0.0065
     27 C         139.4730  143.4111  164.8993 C.ar    1  UNL1        0.0295
     28 S         140.2510  143.1431  166.1534 S.2     1  UNL1       -0.0868
@<TRIPOS>BOND
     1     8     9    2
     2     9    10   am
     3    10    11    1
     4    11    12    1
     5    12    13    1
     6    13    14    1
     7    14    15    1
     8    15    16    1
     9    16     1    1
    10     1     2   ar
    11     2     3    1
    12     2     4   ar
    13     4     5   ar
    14     5     6   ar
    15     6     7   ar
    16     7    20    1
    17    20    21   ar
    18    21    22   ar
    19    22    23   ar
    20    23    24   ar
    21    24    25   ar
    22    25    26   ar
    23    26    27   ar
    24    27    28   ar
    25    16    17    1
    26    17    18    1
    27    13     9    1
    28     7     1   ar
    29    28    20   ar
    30    18    13    1
    31    27    22   ar
    32    10    19    1
@<TRIPOS>MOLECULE
*****
 28 32 0 0 0
SMALL
GASTEIGER

@<TRIPOS>ATOM
      1 C         141.8915  140.8045  167.4194 C.ar    1  UNL1        0.0620
      2 C         142.2005  140.1212  168.7185 C.ar    1  UNL1        0.0901
      3 CL        142.7965  138.7447  168.7188 Cl      1  UNL1       -0.0793
      4 C         141.9133  140.8144  170.0174 C.ar    1  UNL1        0.1115
      5 N         141.3173  142.1909  170.0172 N.ar    1  UNL1       -0.2413
      6 C         141.0084  142.8742  168.7180 C.ar    1  UNL1        0.1006
      7 C         141.2955  142.1810  167.4192 C.ar    1  UNL1        0.0393
      8 O         140.4389  137.4206  163.2245 O.2     1  UNL1       -0.2751
      9 C         141.8212  137.8067  162.7886 C.2     1  UNL1        0.2217
     10 N         142.5146  137.3425  161.5422 N.am    1  UNL1       -0.3043
     11 C         143.8749  137.9738  161.5059 C.3     1  UNL1        0.0899
     12 C         144.0221  138.8282  162.7301 C.3     1  UNL1        0.0300
     13 C         142.7529  138.7249  163.5229 C.3     1  UNL1        0.0737
     14 C         143.7873  139.6182  164.1409 C.3     1  UNL1        0.0301
     15 C         143.5002  140.3113  165.4398 C.3     1  UNL1        0.0913
     16 N         142.1786  140.1112  166.1205 N.pl3   1  UNL1       -0.3067
     17 C         141.1442  139.2180  165.5025 C.3     1  UNL1        0.0913
     18 C         141.4314  138.5248  164.2036 C.3     1  UNL1        0.0301
     19 H         142.1423  136.7309  160.8665 H       1  UNL1        0.1494
     20 C         140.9865  142.8642  166.1200 C.ar    1  UNL1        0.0322
     21 C         141.9898  143.4538  165.1735 C.ar    1  UNL1        0.0071
     22 C         141.2435  144.0318  164.0078 C.ar    1  UNL1        0.0065
     23 C         141.7082  144.7397  162.7697 C.ar    1  UNL1        0.0005
     24 C         140.7084  145.2152  161.7577 C.ar    1  UNL1        0.0000
     25 C         139.2439  144.9829  161.9837 C.ar    1  UNL1        0.0005
     26 C         138.7791  144.2749  163.2218 C.ar    1  UNL1        0.0065
     27 C         139.7789  143.7994  164.2339 C.ar    1  UNL1        0.0295
     28 S         139.6201  143.0778  165.5392 S.2     1  UNL1       -0.0868
@<TRIPOS>BOND
     1     8     9    2
     2     9    10   am
     3    10    11    1
     4    11    12    1
     5    12    13    1
     6    13    14    1
     7    14    15    1
     8    15    16    1
     9    16     1    1
    10     1     2   ar
    11     2     3    1
    12     2     4   ar
    13     4     5   ar
    14     5     6   ar
    15     6     7   ar
    16     7    20    1
    17    20    21   ar
    18    21    22   ar
    19    22    23   ar
    20    23    24   ar
    21    24    25   ar
    22    25    26   ar
    23    26    27   ar
    24    27    28   ar
    25    16    17    1
    26    17    18    1
    27    13     9    1
    28     7     1   ar
    29    28    20   ar
    30    18    13    1
    31    27    22   ar
    32    10    19    1
@<TRIPOS>MOLECULE
*****
 28 32 0 0 0
SMALL
GASTEIGER

@<TRIPOS>ATOM
      1 C         140.6021  143.5714  161.5798 C.ar    1  UNL1        0.0620
      2 C         140.7886  144.6041  160.5081 C.ar    1  UNL1        0.0901
      3 CL        141.6936  144.3233  159.3453 Cl      1  UNL1       -0.0793
      4 C         140.0700  145.9177  160.5991 C.ar    1  UNL1        0.1115
      5 N         139.1650  146.1986  161.7619 N.ar    1  UNL1       -0.2413
      6 C         138.9785  145.1658  162.8336 C.ar    1  UNL1        0.1006
      7 C         139.6970  143.8522  162.7426 C.ar    1  UNL1        0.0393
      8 O         144.8915  140.2165  162.8062 O.2     1  UNL1       -0.2751
      9 C         144.0687  139.2962  161.9542 C.2     1  UNL1        0.2217
     10 N         144.4126  137.8798  161.5999 N.am    1  UNL1       -0.3043
     11 C         143.3140  137.3388  160.7335 C.3     1  UNL1        0.0899
     12 C         142.2911  138.4210  160.5524 C.3     1  UNL1        0.0300
     13 C         142.7576  139.6307  161.3068 C.3     1  UNL1        0.0737
     14 C         141.4470  139.8191  160.6020 C.3     1  UNL1        0.0301
     15 C         140.7285  141.1326  160.6930 C.3     1  UNL1        0.0913
     16 N         141.3206  142.2578  161.4888 N.pl3   1  UNL1       -0.3067
     17 C         142.6312  142.0695  162.1936 C.3     1  UNL1        0.0913
     18 C         143.3497  140.7559  162.1026 C.3     1  UNL1        0.0301
     19 H         145.2179  137.3910  161.8858 H       1  UNL1        0.1494
     20 C         139.5106  142.8194  163.8144 C.ar    1  UNL1        0.0322
     21 C         138.6115  141.6212  163.7373 C.ar    1  UNL1        0.0071
     22 C         138.7357  140.8648  165.0266 C.ar    1  UNL1        0.0065
     23 C         138.0863  139.6050  165.5177 C.ar    1  UNL1        0.0005
     24 C         138.4127  139.0760  166.8829 C.ar    1  UNL1        0.0000
     25 C         139.3884  139.8067  167.7569 C.ar    1  UNL1        0.0005
     26 C         140.0379  141.0665  167.2657 C.ar    1  UNL1        0.0065
     27 C         139.7115  141.5956  165.9006 C.ar    1  UNL1        0.0295
     28 S         140.1904  142.8036  165.1514 S.2     1  UNL1       -0.0868
@<TRIPOS>BOND
     1     8     9    2
     2     9    10   am
     3    10    11    1
     4    11    12    1
     5    12    13    1
     6    13    14    1
     7    14    15    1
     8    15    16    1
     9    16     1    1
    10     1     2   ar
    11     2     3    1
    12     2     4   ar
    13     4     5   ar
    14     5     6   ar
    15     6     7   ar
    16     7    20    1
    17    20    21   ar
    18    21    22   ar
    19    22    23   ar
    20    23    24   ar
    21    24    25   ar
    22    25    26   ar
    23    26    27   ar
    24    27    28   ar
    25    16    17    1
    26    17    18    1
    27    13     9    1
    28     7     1   ar
    29    28    20   ar
    30    18    13    1
    31    27    22   ar
    32    10    19    1
@<TRIPOS>MOLECULE
*****
 28 32 0 0 0
SMALL
GASTEIGER

@<TRIPOS>ATOM
      1 C         139.5823  139.2887  163.5077 C.ar    1  UNL1        0.0620
      2 C         138.7188  138.0914  163.2419 C.ar    1  UNL1        0.0901
      3 CL        138.4616  137.0949  164.3332 Cl      1  UNL1       -0.0793
      4 C         138.1123  137.8905  161.8847 C.ar    1  UNL1        0.1115
      5 N         138.3694  138.8870  160.7934 N.ar    1  UNL1       -0.2413
      6 C         139.2330  140.0843  161.0593 C.ar    1  UNL1        0.1006
      7 C         139.8395  140.2851  162.4165 C.ar    1  UNL1        0.0393
      8 O         143.6718  138.5242  167.2294 O.2     1  UNL1       -0.2751
      9 C         142.7239  139.3552  168.0423 C.2     1  UNL1        0.2217
     10 N         142.9317  139.7960  169.4609 N.am    1  UNL1       -0.3043
     11 C         141.7379  140.6046  169.8747 C.3     1  UNL1        0.0899
     12 C         140.7922  140.6634  168.7117 C.3     1  UNL1        0.0300
     13 C         141.4016  139.8912  167.5792 C.3     1  UNL1        0.0737
     14 C         140.0646  140.4910  167.2590 C.3     1  UNL1        0.0301
     15 C         139.4582  140.2901  165.9019 C.3     1  UNL1        0.0913
     16 N         140.1888  139.4895  164.8650 N.pl3   1  UNL1       -0.3067
     17 C         141.5258  138.8897  165.1852 C.3     1  UNL1        0.0913
     18 C         142.1322  139.0906  166.5423 C.3     1  UNL1        0.0301
     19 H         143.7143  139.5907  170.0219 H       1  UNL1        0.1494
     20 C         140.7031  141.4825  162.6824 C.ar    1  UNL1        0.0322
     21 C         140.2616  142.7618  163.3292 C.ar    1  UNL1        0.0071
     22 C         141.4454  143.6807  163.3948 C.ar    1  UNL1        0.0065
     23 C         141.6067  145.0733  163.9283 C.ar    1  UNL1        0.0005
     24 C         142.9411  145.7544  163.8554 C.ar    1  UNL1        0.0000
     25 C         144.1142  145.0430  163.2491 C.ar    1  UNL1        0.0005
     26 C         143.9530  143.6504  162.7156 C.ar    1  UNL1        0.0065
     27 C         142.6185  142.9692  162.7885 C.ar    1  UNL1        0.0295
     28 S         142.1597  141.6106  162.3482 S.2     1  UNL1       -0.0868
@<TRIPOS>BOND
     1     8     9    2
     2     9    10   am
     3    10    11    1
     4    11    12    1
     5    12    13    1
     6    13    14    1
     7    14    15    1
     8    15    16    1
     9    16     1    1
    10     1     2   ar
    11     2     3    1
    12     2     4   ar
    13     4     5   ar
    14     5     6   ar
    15     6     7   ar
    16     7    20    1
    17    20    21   ar
    18    21    22   ar
    19    22    23   ar
    20    23    24   ar
    21    24    25   ar
    22    25    26   ar
    23    26    27   ar
    24    27    28   ar
    25    16    17    1
    26    17    18    1
    27    13     9    1
    28     7     1   ar
    29    28    20   ar
    30    18    13    1
    31    27    22   ar
    32    10    19    1
