@<TRIPOS>MOLECULE
*****
 44 49 0 0 0
SMALL
GASTEIGER

@<TRIPOS>ATOM
      1 C         144.2675  139.5543  164.6147 C.3     1  UNL1        0.0546
      2 C         143.8557  138.7456  165.8089 C.3     1  UNL1        0.0180
      3 C         143.2470  139.6788  166.8132 C.3     1  UNL1        0.0311
      4 C         142.6163  139.7558  168.1720 C.3     1  UNL1        0.0973
      5 N         142.2622  141.1889  168.4381 N.am    1  UNL1       -0.2455
      6 C         141.6105  141.7200  169.6805 C.2     1  UNL1        0.4049
      7 O         141.3157  143.1854  169.8049 O.2     1  UNL1       -0.2262
      8 C         142.6740  141.9976  167.2439 C.3     1  UNL1        0.1053
      9 C         143.2827  141.0644  166.2396 C.3     1  UNL1        0.0903
     10 C         143.9134  140.9874  164.8808 C.3     1  UNL1        0.0261
     11 C         143.3184  142.4499  165.6660 C.2     1  UNL1        0.2267
     12 O         144.2855  143.4609  166.2069 O.2     1  UNL1       -0.2748
     13 N         142.3869  142.8245  164.5515 N.am    1  UNL1       -0.2750
     14 C         142.4226  144.2100  163.9779 C.3     1  UNL1        0.1000
     15 C         141.4911  144.5845  162.8634 C.3     1  UNL1        0.0670
     16 C         140.5240  143.5735  162.3225 C.ar    1  UNL1        0.0583
     17 N         139.5925  143.9481  161.2080 N.ar    1  UNL1       -0.2484
     18 C         138.6254  142.9371  160.6671 C.ar    1  UNL1        0.1023
     19 C         138.5897  141.5515  161.2408 C.ar    1  UNL1        0.0902
     20 C         139.5212  141.1770  162.3552 C.ar    1  UNL1        0.0040
     21 C         140.4883  142.1880  162.8961 C.ar    1  UNL1        0.0113
     22 C         141.4197  141.8135  164.0106 C.3     1  UNL1        0.1213
     23 C         137.6226  140.5406  160.6999 C.3     1  UNL1        0.4200
     24 F         136.6554  139.5296  160.1590 F       1  UNL1       -0.1658
     25 F         137.8572  141.0587  159.3119 F       1  UNL1       -0.1658
     26 F         137.3880  140.0224  162.0879 F       1  UNL1       -0.1658
     27 N         144.9191  139.0233  163.3723 N.3     1  UNL1       -0.2975
     28 H         145.7779  139.5573  163.2389 H       1  UNL1        0.1232
     29 C         144.2350  140.2824  161.2052 C.3     1  UNL1        0.1591
     30 C         143.4977  140.3146  159.8992 C.3     1  UNL1        0.1729
     31 O         142.7074  139.1198  159.4545 O.3     1  UNL1       -0.3511
     32 C         142.6543  137.8928  160.3157 C.3     1  UNL1        0.1437
     33 C         143.3916  137.8606  161.6216 C.3     1  UNL1        0.0503
     34 C         144.1819  139.0554  162.0663 C.3     1  UNL1        0.0865
     35 C         144.5677  142.8579  161.2834 C.3     1  UNL1        0.1742
     36 O         145.0253  141.4772  161.6499 O.3     1  UNL1       -0.3496
     37 O         141.2539  140.7856  170.7984 O.3     1  UNL1       -0.4330
     38 C         140.0477  139.9017  170.6810 C.3     1  UNL1        0.2274
     39 C         138.8770  140.3367  169.8501 C.3     1  UNL1        0.1202
     40 N         138.6419  139.7186  168.5038 N.3     1  UNL1       -0.2696
     41 C         137.6207  138.6679  168.1823 C.3     1  UNL1        0.0722
     42 C         137.7343  138.3425  166.7225 C.3     1  UNL1        0.0188
     43 C         138.8256  139.1920  166.1418 C.3     1  UNL1        0.0188
     44 C         139.3865  140.0425  167.2427 C.3     1  UNL1        0.0722
@<TRIPOS>BOND
     1    35    36    1
     2    36    29    1
     3    29    30    1
     4    30    31    1
     5    31    32    1
     6    32    33    1
     7    33    34    1
     8    34    27    1
     9     1    27    1
    10     1     2    1
    11     3     2    1
    12     3     4    1
    13     4     5    1
    14     5     6   am
    15     6     7    2
    16     6    37    1
    17    37    38    1
    18    38    39    1
    19    39    40    1
    20    40    41    1
    21    41    42    1
    22    42    43    1
    23    43    44    1
    24     5     8    1
    25     8     9    1
    26     9    11    1
    27    11    12    2
    28    11    13   am
    29    13    14    1
    30    14    15    1
    31    15    16    1
    32    16    17   ar
    33    17    18   ar
    34    18    19   ar
    35    19    23    1
    36    23    24    1
    37    23    25    1
    38    23    26    1
    39    19    20   ar
    40    20    21   ar
    41    21    22    1
    42     9    10    1
    43    34    29    1
    44    10     1    1
    45     9     3    1
    46    22    13    1
    47    44    40    1
    48    21    16   ar
    49    27    28    1
@<TRIPOS>MOLECULE
*****
 44 49 0 0 0
SMALL
GASTEIGER

@<TRIPOS>ATOM
      1 C         138.6100  141.8227  160.0247 C.3     1  UNL1        0.0546
      2 C         138.0878  140.8300  159.0289 C.3     1  UNL1        0.0180
      3 C         139.2164  139.9185  158.6475 C.3     1  UNL1        0.0311
      4 C         139.5912  138.7416  157.7964 C.3     1  UNL1        0.0973
      5 N         141.0426  138.4437  158.0306 N.am    1  UNL1       -0.2455
      6 C         141.8330  137.3458  157.3826 C.2     1  UNL1        0.4049
      7 O         143.2845  137.1687  157.7169 O.2     1  UNL1       -0.2262
      8 C         141.5648  139.4365  159.0264 C.3     1  UNL1        0.1053
      9 C         140.4362  140.3480  159.4077 C.3     1  UNL1        0.0903
     10 C         140.0613  141.5248  160.2589 C.3     1  UNL1        0.0261
     11 C         141.6558  140.7774  160.1679 C.2     1  UNL1        0.2267
     12 O         142.8352  141.3447  159.4350 O.2     1  UNL1       -0.2748
     13 N         141.6961  140.6395  161.6611 N.am    1  UNL1       -0.2750
     14 C         142.9158  141.0690  162.4213 C.3     1  UNL1        0.1000
     15 C         142.9561  140.9311  163.9143 C.3     1  UNL1        0.0670
     16 C         141.7767  140.3638  164.6472 C.ar    1  UNL1        0.0583
     17 N         141.8170  140.2259  166.1404 N.ar    1  UNL1       -0.2484
     18 C         140.6376  139.6586  166.8733 C.ar    1  UNL1        0.1023
     19 C         139.4179  139.2291  166.1130 C.ar    1  UNL1        0.0902
     20 C         139.3776  139.3670  164.6199 C.ar    1  UNL1        0.0040
     21 C         140.5570  139.9343  163.8871 C.ar    1  UNL1        0.0113
     22 C         140.5167  140.0722  162.3940 C.3     1  UNL1        0.1213
     23 C         138.2384  138.6618  166.8459 C.3     1  UNL1        0.4200
     24 F         137.0590  138.0944  167.5788 F       1  UNL1       -0.1658
     25 F         138.0520  137.6451  165.7589 F       1  UNL1       -0.1658
     26 F         138.4249  139.6784  167.9329 F       1  UNL1       -0.1658
     27 N         137.8195  142.9207  160.6727 N.3     1  UNL1       -0.2975
     28 H         138.0018  143.7699  160.1379 H       1  UNL1        0.1232
     29 C         138.7881  144.5130  162.4828 C.3     1  UNL1        0.1591
     30 C         139.0188  144.8522  163.9256 C.3     1  UNL1        0.1729
     31 O         138.5115  143.9381  165.0013 O.3     1  UNL1       -0.3511
     32 C         137.7735  142.6848  164.6341 C.3     1  UNL1        0.1437
     33 C         137.5429  142.3457  163.1913 C.3     1  UNL1        0.0503
     34 C         138.0502  143.2598  162.1156 C.3     1  UNL1        0.0865
     35 C         140.6673  145.2239  160.8355 C.3     1  UNL1        0.1742
     36 O         139.2954  145.4271  161.4071 O.3     1  UNL1       -0.3496
     37 O         141.1719  136.4249  156.4003 O.3     1  UNL1       -0.4330
     38 C         142.0072  135.5901  155.4755 C.3     1  UNL1        0.2274
     39 C         142.0067  134.0959  155.6073 C.3     1  UNL1        0.1202
     40 N         143.1632  133.4004  156.2622 N.3     1  UNL1       -0.2696
     41 C         143.9464  132.2584  155.6856 C.3     1  UNL1        0.0722
     42 C         145.0067  131.8769  156.6756 C.3     1  UNL1        0.0188
     43 C         144.8789  132.7832  157.8640 C.3     1  UNL1        0.0188
     44 C         143.7395  133.7248  157.6085 C.3     1  UNL1        0.0722
@<TRIPOS>BOND
     1    35    36    1
     2    36    29    1
     3    29    30    1
     4    30    31    1
     5    31    32    1
     6    32    33    1
     7    33    34    1
     8    34    27    1
     9     1    27    1
    10     1     2    1
    11     3     2    1
    12     3     4    1
    13     4     5    1
    14     5     6   am
    15     6     7    2
    16     6    37    1
    17    37    38    1
    18    38    39    1
    19    39    40    1
    20    40    41    1
    21    41    42    1
    22    42    43    1
    23    43    44    1
    24     5     8    1
    25     8     9    1
    26     9    11    1
    27    11    12    2
    28    11    13   am
    29    13    14    1
    30    14    15    1
    31    15    16    1
    32    16    17   ar
    33    17    18   ar
    34    18    19   ar
    35    19    23    1
    36    23    24    1
    37    23    25    1
    38    23    26    1
    39    19    20   ar
    40    20    21   ar
    41    21    22    1
    42     9    10    1
    43    34    29    1
    44    10     1    1
    45     9     3    1
    46    22    13    1
    47    44    40    1
    48    21    16   ar
    49    27    28    1
@<TRIPOS>MOLECULE
*****
 44 49 0 0 0
SMALL
GASTEIGER

@<TRIPOS>ATOM
      1 C         138.7371  141.5431  159.6830 C.3     1  UNL1        0.0546
      2 C         138.3162  140.1560  159.2973 C.3     1  UNL1        0.0180
      3 C         139.4733  139.4952  158.6085 C.3     1  UNL1        0.0311
      4 C         139.9284  138.2295  157.9444 C.3     1  UNL1        0.0973
      5 N         141.3456  138.4260  157.4941 N.am    1  UNL1       -0.2455
      6 C         142.1932  137.4131  156.7828 C.2     1  UNL1        0.4049
      7 O         143.6008  137.7543  156.3926 O.2     1  UNL1       -0.2262
      8 C         141.7665  139.8131  157.8798 C.3     1  UNL1        0.1053
      9 C         140.6094  140.4739  158.5685 C.3     1  UNL1        0.0903
     10 C         140.1543  141.7396  159.2326 C.3     1  UNL1        0.0261
     11 C         141.7453  141.4526  158.5286 C.2     1  UNL1        0.2267
     12 O         141.8944  142.3814  157.3602 O.2     1  UNL1       -0.2748
     13 N         142.7324  141.5026  159.6571 N.am    1  UNL1       -0.2750
     14 C         143.8683  142.4813  159.6171 C.3     1  UNL1        0.1000
     15 C         144.8552  142.5313  160.7455 C.3     1  UNL1        0.0670
     16 C         144.7062  141.6025  161.9139 C.ar    1  UNL1        0.0583
     17 N         145.6932  141.6525  163.0424 N.ar    1  UNL1       -0.2484
     18 C         145.5442  140.7237  164.2108 C.ar    1  UNL1        0.1023
     19 C         144.4081  139.7449  164.2507 C.ar    1  UNL1        0.0902
     20 C         143.4212  139.6950  163.1223 C.ar    1  UNL1        0.0040
     21 C         143.5702  140.6238  161.9539 C.ar    1  UNL1        0.0113
     22 C         142.5833  140.5738  160.8255 C.3     1  UNL1        0.1213
     23 C         144.2591  138.8161  165.4191 C.3     1  UNL1        0.4200
     24 F         144.1100  137.8874  166.5875 F       1  UNL1       -0.1658
     25 F         142.7695  138.9826  165.3614 F       1  UNL1       -0.1658
     26 F         145.7487  138.6497  165.4768 F       1  UNL1       -0.1658
     27 N         137.8895  142.5560  160.3942 N.3     1  UNL1       -0.2975
     28 H         138.0352  143.4471  159.9198 H       1  UNL1        0.1232
     29 C         138.8272  144.0320  162.3156 C.3     1  UNL1        0.1591
     30 C         139.0294  144.2832  163.7805 C.3     1  UNL1        0.1729
     31 O         138.4959  143.3094  164.7890 O.3     1  UNL1       -0.3511
     32 C         137.7602  142.0844  164.3326 C.3     1  UNL1        0.1437
     33 C         137.5581  141.8333  162.8677 C.3     1  UNL1        0.0503
     34 C         138.0916  142.8071  161.8592 C.3     1  UNL1        0.0865
     35 C         139.7028  146.4055  161.7240 C.3     1  UNL1        0.1742
     36 O         139.3607  145.0058  161.3071 O.3     1  UNL1       -0.3496
     37 O         141.6332  136.0592  156.4618 O.3     1  UNL1       -0.4330
     38 C         142.5208  134.9991  155.8802 C.3     1  UNL1        0.2274
     39 C         142.2118  133.5501  156.1151 C.3     1  UNL1        0.1202
     40 N         143.2376  132.6575  156.7482 N.3     1  UNL1       -0.2696
     41 C         143.2698  131.1598  156.6733 C.3     1  UNL1        0.0722
     42 C         144.4635  130.6825  157.4461 C.3     1  UNL1        0.0188
     43 C         145.1691  131.8853  157.9986 C.3     1  UNL1        0.0188
     44 C         144.4115  133.1059  157.5673 C.3     1  UNL1        0.0722
@<TRIPOS>BOND
     1    35    36    1
     2    36    29    1
     3    29    30    1
     4    30    31    1
     5    31    32    1
     6    32    33    1
     7    33    34    1
     8    34    27    1
     9     1    27    1
    10     1     2    1
    11     3     2    1
    12     3     4    1
    13     4     5    1
    14     5     6   am
    15     6     7    2
    16     6    37    1
    17    37    38    1
    18    38    39    1
    19    39    40    1
    20    40    41    1
    21    41    42    1
    22    42    43    1
    23    43    44    1
    24     5     8    1
    25     8     9    1
    26     9    11    1
    27    11    12    2
    28    11    13   am
    29    13    14    1
    30    14    15    1
    31    15    16    1
    32    16    17   ar
    33    17    18   ar
    34    18    19   ar
    35    19    23    1
    36    23    24    1
    37    23    25    1
    38    23    26    1
    39    19    20   ar
    40    20    21   ar
    41    21    22    1
    42     9    10    1
    43    34    29    1
    44    10     1    1
    45     9     3    1
    46    22    13    1
    47    44    40    1
    48    21    16   ar
    49    27    28    1
@<TRIPOS>MOLECULE
*****
 44 49 0 0 0
SMALL
GASTEIGER

@<TRIPOS>ATOM
      1 C         137.9815  140.6530  156.7454 C.3     1  UNL1        0.0546
      2 C         137.6993  142.0734  157.1361 C.3     1  UNL1        0.0180
      3 C         138.8777  142.5839  157.9111 C.3     1  UNL1        0.0311
      4 C         139.4315  143.7773  158.6316 C.3     1  UNL1        0.0973
      5 N         140.7844  143.4098  159.1653 N.am    1  UNL1       -0.2455
      6 C         141.6951  144.3057  159.9516 C.2     1  UNL1        0.4049
      7 O         143.0256  143.7966  160.4212 O.2     1  UNL1       -0.2262
      8 C         141.0667  141.9894  158.7746 C.3     1  UNL1        0.1053
      9 C         139.8883  141.4789  157.9995 C.3     1  UNL1        0.0903
     10 C         139.3344  140.2856  157.2790 C.3     1  UNL1        0.0261
     11 C         140.8988  140.3740  158.0879 C.2     1  UNL1        0.2267
     12 O         141.8021  140.0889  156.9248 O.2     1  UNL1       -0.2748
     13 N         141.0061  139.5540  159.3394 N.am    1  UNL1       -0.2750
     14 C         142.0166  138.4490  159.4277 C.3     1  UNL1        0.1000
     15 C         142.1238  137.6291  160.6792 C.3     1  UNL1        0.0670
     16 C         141.2205  137.9141  161.8423 C.ar    1  UNL1        0.0583
     17 N         141.3278  137.0941  163.0938 N.ar    1  UNL1       -0.2484
     18 C         140.4245  137.3792  164.2569 C.ar    1  UNL1        0.1023
     19 C         139.4139  138.4842  164.1685 C.ar    1  UNL1        0.0902
     20 C         139.3067  139.3041  162.9170 C.ar    1  UNL1        0.0040
     21 C         140.2100  139.0191  161.7539 C.ar    1  UNL1        0.0113
     22 C         140.1028  139.8390  160.5025 C.3     1  UNL1        0.1213
     23 C         138.5106  138.7692  165.3316 C.3     1  UNL1        0.4200
     24 F         137.6073  139.0543  166.4947 F       1  UNL1       -0.1658
     25 F         138.7124  140.2415  165.1275 F       1  UNL1       -0.1658
     26 F         138.3089  137.2970  165.5357 F       1  UNL1       -0.1658
     27 N         137.0708  139.7571  155.9591 N.3     1  UNL1       -0.2975
     28 H         137.6295  139.3582  155.2047 H       1  UNL1        0.1232
     29 C         134.5356  140.3101  156.0885 C.3     1  UNL1        0.1591
     30 C         133.2941  140.8690  155.4590 C.3     1  UNL1        0.1729
     31 O         133.3463  141.4338  154.0704 O.3     1  UNL1       -0.3511
     32 C         134.6401  141.4398  153.3113 C.3     1  UNL1        0.1437
     33 C         135.8816  140.8809  153.9409 C.3     1  UNL1        0.0503
     34 C         135.8293  140.3160  155.3295 C.3     1  UNL1        0.0865
     35 C         133.2182  139.1195  157.9852 C.3     1  UNL1        0.1742
     36 O         134.4833  139.7453  157.4771 O.3     1  UNL1       -0.3496
     37 O         141.2753  145.7104  160.2682 O.3     1  UNL1       -0.4330
     38 C         140.2094  145.9617  161.2932 C.3     1  UNL1        0.2274
     39 C         140.3007  145.3158  162.6440 C.3     1  UNL1        0.1202
     40 N         139.2305  144.3668  163.0955 N.3     1  UNL1       -0.2696
     41 C         138.5964  144.3350  164.4545 C.3     1  UNL1        0.0722
     42 C         137.5804  143.2315  164.4663 C.3     1  UNL1        0.0188
     43 C         137.5865  142.5815  163.1145 C.3     1  UNL1        0.0188
     44 C         138.6063  143.2831  162.2673 C.3     1  UNL1        0.0722
@<TRIPOS>BOND
     1    35    36    1
     2    36    29    1
     3    29    30    1
     4    30    31    1
     5    31    32    1
     6    32    33    1
     7    33    34    1
     8    34    27    1
     9     1    27    1
    10     1     2    1
    11     3     2    1
    12     3     4    1
    13     4     5    1
    14     5     6   am
    15     6     7    2
    16     6    37    1
    17    37    38    1
    18    38    39    1
    19    39    40    1
    20    40    41    1
    21    41    42    1
    22    42    43    1
    23    43    44    1
    24     5     8    1
    25     8     9    1
    26     9    11    1
    27    11    12    2
    28    11    13   am
    29    13    14    1
    30    14    15    1
    31    15    16    1
    32    16    17   ar
    33    17    18   ar
    34    18    19   ar
    35    19    23    1
    36    23    24    1
    37    23    25    1
    38    23    26    1
    39    19    20   ar
    40    20    21   ar
    41    21    22    1
    42     9    10    1
    43    34    29    1
    44    10     1    1
    45     9     3    1
    46    22    13    1
    47    44    40    1
    48    21    16   ar
    49    27    28    1
@<TRIPOS>MOLECULE
*****
 44 49 0 0 0
SMALL
GASTEIGER

@<TRIPOS>ATOM
      1 C         138.2047  140.0105  159.8010 C.3     1  UNL1        0.0546
      2 C         137.8475  141.1228  158.8601 C.3     1  UNL1        0.0180
      3 C         138.9962  141.3175  157.9153 C.3     1  UNL1        0.0311
      4 C         139.4854  142.1252  156.7499 C.3     1  UNL1        0.0973
      5 N         140.8548  141.6325  156.3866 N.am    1  UNL1       -0.2455
      6 C         141.7159  142.1596  155.2772 C.2     1  UNL1        0.4049
      7 O         143.0706  141.5641  155.0317 O.2     1  UNL1       -0.2262
      8 C         141.2120  140.5203  157.3275 C.3     1  UNL1        0.1053
      9 C         140.0633  140.3255  158.2723 C.3     1  UNL1        0.0903
     10 C         139.5741  139.5178  159.4377 C.3     1  UNL1        0.0261
     11 C         141.1304  139.3336  158.6293 C.2     1  UNL1        0.2267
     12 O         141.1836  138.0061  157.9330 O.2     1  UNL1       -0.2748
     13 N         142.1442  139.6692  159.6827 N.am    1  UNL1       -0.2750
     14 C         143.2113  138.6773  160.0397 C.3     1  UNL1        0.1000
     15 C         144.2251  139.0129  161.0930 C.3     1  UNL1        0.0670
     16 C         144.1718  140.3404  161.7893 C.ar    1  UNL1        0.0583
     17 N         145.1857  140.6759  162.8427 N.ar    1  UNL1       -0.2484
     18 C         145.1325  142.0034  163.5391 C.ar    1  UNL1        0.1023
     19 C         144.0653  142.9954  163.1820 C.ar    1  UNL1        0.0902
     20 C         143.0515  142.6598  162.1287 C.ar    1  UNL1        0.0040
     21 C         143.1048  141.3323  161.4324 C.ar    1  UNL1        0.0113
     22 C         142.0910  140.9967  160.3790 C.3     1  UNL1        0.1213
     23 C         144.0121  144.3229  163.8784 C.3     1  UNL1        0.4200
     24 F         143.9589  145.6504  164.5747 F       1  UNL1       -0.1658
     25 F         144.7466  143.7385  165.0485 F       1  UNL1       -0.1658
     26 F         143.2776  144.9072  162.7083 F       1  UNL1       -0.1658
     27 N         137.3436  139.4834  160.9105 N.3     1  UNL1       -0.2975
     28 H         136.5315  140.0977  160.9702 H       1  UNL1        0.1232
     29 C         137.7603  140.5042  163.2630 C.3     1  UNL1        0.1591
     30 C         138.3157  140.3845  164.6512 C.3     1  UNL1        0.1729
     31 O         139.0099  139.1243  165.0751 O.3     1  UNL1       -0.3511
     32 C         139.1487  137.9836  164.1109 C.3     1  UNL1        0.1437
     33 C         138.5933  138.1033  162.7226 C.3     1  UNL1        0.0503
     34 C         137.8990  139.3637  162.2987 C.3     1  UNL1        0.0865
     35 C         137.8654  142.9229  162.3199 C.3     1  UNL1        0.1742
     36 O         137.0661  141.7645  162.8390 O.3     1  UNL1       -0.3496
     37 O         141.2223  143.2822  154.4134 O.3     1  UNL1       -0.4330
     38 C         141.6601  144.6899  154.6903 C.3     1  UNL1        0.2274
     39 C         142.4508  144.9999  155.9268 C.3     1  UNL1        0.1202
     40 N         141.7813  144.9835  157.2689 N.3     1  UNL1       -0.2696
     41 C         142.2230  144.1932  158.4649 C.3     1  UNL1        0.0722
     42 C         141.2672  144.4757  159.5859 C.3     1  UNL1        0.0188
     43 C         140.2348  145.4405  159.0827 C.3     1  UNL1        0.0188
     44 C         140.5525  145.7544  157.6508 C.3     1  UNL1        0.0722
@<TRIPOS>BOND
     1    35    36    1
     2    36    29    1
     3    29    30    1
     4    30    31    1
     5    31    32    1
     6    32    33    1
     7    33    34    1
     8    34    27    1
     9     1    27    1
    10     1     2    1
    11     3     2    1
    12     3     4    1
    13     4     5    1
    14     5     6   am
    15     6     7    2
    16     6    37    1
    17    37    38    1
    18    38    39    1
    19    39    40    1
    20    40    41    1
    21    41    42    1
    22    42    43    1
    23    43    44    1
    24     5     8    1
    25     8     9    1
    26     9    11    1
    27    11    12    2
    28    11    13   am
    29    13    14    1
    30    14    15    1
    31    15    16    1
    32    16    17   ar
    33    17    18   ar
    34    18    19   ar
    35    19    23    1
    36    23    24    1
    37    23    25    1
    38    23    26    1
    39    19    20   ar
    40    20    21   ar
    41    21    22    1
    42     9    10    1
    43    34    29    1
    44    10     1    1
    45     9     3    1
    46    22    13    1
    47    44    40    1
    48    21    16   ar
    49    27    28    1
@<TRIPOS>MOLECULE
*****
 44 49 0 0 0
SMALL
GASTEIGER

@<TRIPOS>ATOM
      1 C         139.4306  143.2333  159.7611 C.3     1  UNL1        0.0546
      2 C         140.2756  143.2216  158.5219 C.3     1  UNL1        0.0180
      3 C         140.1932  141.8512  157.9175 C.3     1  UNL1        0.0311
      4 C         140.6645  140.9970  156.7781 C.3     1  UNL1        0.0973
      5 N         140.0598  139.6338  156.9397 N.am    1  UNL1       -0.2455
      6 C         140.2643  138.4643  156.0229 C.2     1  UNL1        0.4049
      7 O         139.5905  137.1562  156.3143 O.2     1  UNL1       -0.2262
      8 C         139.2148  139.6455  158.1790 C.3     1  UNL1        0.1053
      9 C         139.2972  141.0159  158.7833 C.3     1  UNL1        0.0903
     10 C         138.8259  141.8701  159.9227 C.3     1  UNL1        0.0261
     11 C         138.4012  140.1807  159.6491 C.2     1  UNL1        0.2267
     12 O         136.9675  139.9703  159.2618 O.2     1  UNL1       -0.2748
     13 N         138.9391  139.5557  160.9022 N.am    1  UNL1       -0.2750
     14 C         138.0431  138.7205  161.7680 C.3     1  UNL1        0.1000
     15 C         138.5809  138.0956  163.0210 C.3     1  UNL1        0.0670
     16 C         140.0147  138.3060  163.4083 C.ar    1  UNL1        0.0583
     17 N         140.5526  137.6810  164.6615 N.ar    1  UNL1       -0.2484
     18 C         141.9863  137.8914  165.0488 C.ar    1  UNL1        0.1023
     19 C         142.8823  138.7266  164.1829 C.ar    1  UNL1        0.0902
     20 C         142.3445  139.3515  162.9299 C.ar    1  UNL1        0.0040
     21 C         140.9107  139.1412  162.5426 C.ar    1  UNL1        0.0113
     22 C         140.3729  139.7661  161.2895 C.3     1  UNL1        0.1213
     23 C         144.3161  138.9370  164.5702 C.3     1  UNL1        0.4200
     24 F         145.7499  139.1473  164.9575 F       1  UNL1       -0.1658
     25 F         144.6021  139.4957  163.2079 F       1  UNL1       -0.1658
     26 F         144.0301  138.3782  165.9325 F       1  UNL1       -0.1658
     27 N         139.2262  144.4028  160.6779 N.3     1  UNL1       -0.2975
     28 H         139.9559  145.0806  160.4578 H       1  UNL1        0.1232
     29 C         140.5662  144.0911  162.8818 C.3     1  UNL1        0.1591
     30 C         140.5938  143.8925  164.3683 C.3     1  UNL1        0.1729
     31 O         139.3089  143.8072  165.1376 O.3     1  UNL1       -0.3511
     32 C         137.9964  143.9204  164.4202 C.3     1  UNL1        0.1437
     33 C         137.9688  144.1190  162.9337 C.3     1  UNL1        0.0503
     34 C         139.2538  144.2043  162.1645 C.3     1  UNL1        0.0865
     35 C         142.6957  142.9510  161.9249 C.3     1  UNL1        0.1742
     36 O         141.8511  144.1764  162.1125 O.3     1  UNL1       -0.3496
     37 O         141.1424  138.6029  154.8148 O.3     1  UNL1       -0.4330
     38 C         142.6230  138.3959  154.9362 C.3     1  UNL1        0.2274
     39 C         143.2189  137.9949  156.2531 C.3     1  UNL1        0.1202
     40 N         143.4812  139.0321  157.3045 N.3     1  UNL1       -0.2696
     41 C         143.0745  138.9489  158.7459 C.3     1  UNL1        0.0722
     42 C         143.5382  140.2000  159.4313 C.3     1  UNL1        0.0188
     43 C         144.2314  141.0563  158.4135 C.3     1  UNL1        0.0188
     44 C         144.1962  140.3346  157.0991 C.3     1  UNL1        0.0722
@<TRIPOS>BOND
     1    35    36    1
     2    36    29    1
     3    29    30    1
     4    30    31    1
     5    31    32    1
     6    32    33    1
     7    33    34    1
     8    34    27    1
     9     1    27    1
    10     1     2    1
    11     3     2    1
    12     3     4    1
    13     4     5    1
    14     5     6   am
    15     6     7    2
    16     6    37    1
    17    37    38    1
    18    38    39    1
    19    39    40    1
    20    40    41    1
    21    41    42    1
    22    42    43    1
    23    43    44    1
    24     5     8    1
    25     8     9    1
    26     9    11    1
    27    11    12    2
    28    11    13   am
    29    13    14    1
    30    14    15    1
    31    15    16    1
    32    16    17   ar
    33    17    18   ar
    34    18    19   ar
    35    19    23    1
    36    23    24    1
    37    23    25    1
    38    23    26    1
    39    19    20   ar
    40    20    21   ar
    41    21    22    1
    42     9    10    1
    43    34    29    1
    44    10     1    1
    45     9     3    1
    46    22    13    1
    47    44    40    1
    48    21    16   ar
    49    27    28    1
@<TRIPOS>MOLECULE
*****
 44 49 0 0 0
SMALL
GASTEIGER

@<TRIPOS>ATOM
      1 C         141.3756  143.9222  160.1635 C.3     1  UNL1        0.0546
      2 C         140.0748  144.3387  159.5435 C.3     1  UNL1        0.0180
      3 C         139.5792  143.2026  158.6985 C.3     1  UNL1        0.0311
      4 C         138.4691  142.7579  157.7932 C.3     1  UNL1        0.0973
      5 N         138.7775  141.3644  157.3314 N.am    1  UNL1       -0.2455
      6 C         137.9333  140.5334  156.4112 C.2     1  UNL1        0.4049
      7 O         138.3725  139.1491  156.0358 O.2     1  UNL1       -0.2262
      8 C         140.0783  140.9480  157.9514 C.3     1  UNL1        0.1053
      9 C         140.5738  142.0840  158.7963 C.3     1  UNL1        0.0903
     10 C         141.6840  142.5287  159.7017 C.3     1  UNL1        0.0261
     11 C         141.5684  140.9654  158.8942 C.2     1  UNL1        0.2267
     12 O         142.6004  140.7834  157.8209 O.2     1  UNL1       -0.2748
     13 N         141.5310  140.0288  160.0653 N.am    1  UNL1       -0.2750
     14 C         142.5256  138.9103  160.1631 C.3     1  UNL1        0.1000
     15 C         142.4882  137.9738  161.3342 C.3     1  UNL1        0.0670
     16 C         141.4563  138.1558  162.4075 C.ar    1  UNL1        0.0583
     17 N         141.4189  137.2193  163.5786 N.ar    1  UNL1       -0.2484
     18 C         140.3869  137.4013  164.6519 C.ar    1  UNL1        0.1023
     19 C         139.3923  138.5199  164.5540 C.ar    1  UNL1        0.0902
     20 C         139.4297  139.4564  163.3830 C.ar    1  UNL1        0.0040
     21 C         140.4617  139.2744  162.3097 C.ar    1  UNL1        0.0113
     22 C         140.4991  140.2109  161.1386 C.3     1  UNL1        0.1213
     23 C         138.3604  138.7020  165.6273 C.3     1  UNL1        0.4200
     24 F         137.3284  138.8841  166.7006 F       1  UNL1       -0.1658
     25 F         138.3636  140.1814  165.3794 F       1  UNL1       -0.1658
     26 F         138.3572  137.2226  165.8752 F       1  UNL1       -0.1658
     27 N         142.2198  144.7532  161.0837 N.3     1  UNL1       -0.2975
     28 H         143.0499  145.0248  160.5568 H       1  UNL1        0.1232
     29 C         141.7340  143.9602  163.5096 C.3     1  UNL1        0.1591
     30 C         142.2146  143.3863  164.8095 C.3     1  UNL1        0.1729
     31 O         143.6617  143.0316  164.9833 O.3     1  UNL1       -0.3511
     32 C         144.6281  143.2507  163.8572 C.3     1  UNL1        0.1437
     33 C         144.1475  143.8246  162.5573 C.3     1  UNL1        0.0503
     34 C         142.7004  144.1793  162.3836 C.3     1  UNL1        0.0865
     35 C         139.2717  143.2341  163.1097 C.3     1  UNL1        0.1742
     36 O         140.2870  144.3150  163.3358 O.3     1  UNL1       -0.3496
     37 O         136.6499  141.0866  155.8664 O.3     1  UNL1       -0.4330
     38 C         135.3388  140.6610  156.4579 C.3     1  UNL1        0.2274
     39 C         134.2002  140.2771  155.5599 C.3     1  UNL1        0.1202
     40 N         132.8882  139.8545  156.1513 N.3     1  UNL1       -0.2696
     41 C         131.6219  140.6585  156.1527 C.3     1  UNL1        0.0722
     42 C         130.5631  139.8546  156.8475 C.3     1  UNL1        0.0188
     43 C         131.1750  138.5537  157.2754 C.3     1  UNL1        0.0188
     44 C         132.6120  138.5536  156.8451 C.3     1  UNL1        0.0722
@<TRIPOS>BOND
     1    35    36    1
     2    36    29    1
     3    29    30    1
     4    30    31    1
     5    31    32    1
     6    32    33    1
     7    33    34    1
     8    34    27    1
     9     1    27    1
    10     1     2    1
    11     3     2    1
    12     3     4    1
    13     4     5    1
    14     5     6   am
    15     6     7    2
    16     6    37    1
    17    37    38    1
    18    38    39    1
    19    39    40    1
    20    40    41    1
    21    41    42    1
    22    42    43    1
    23    43    44    1
    24     5     8    1
    25     8     9    1
    26     9    11    1
    27    11    12    2
    28    11    13   am
    29    13    14    1
    30    14    15    1
    31    15    16    1
    32    16    17   ar
    33    17    18   ar
    34    18    19   ar
    35    19    23    1
    36    23    24    1
    37    23    25    1
    38    23    26    1
    39    19    20   ar
    40    20    21   ar
    41    21    22    1
    42     9    10    1
    43    34    29    1
    44    10     1    1
    45     9     3    1
    46    22    13    1
    47    44    40    1
    48    21    16   ar
    49    27    28    1
@<TRIPOS>MOLECULE
*****
 44 49 0 0 0
SMALL
GASTEIGER

@<TRIPOS>ATOM
      1 C         142.3657  138.2516  158.3087 C.3     1  UNL1        0.0546
      2 C         142.6544  139.6658  157.9004 C.3     1  UNL1        0.0180
      3 C         141.6378  140.5538  158.5546 C.3     1  UNL1        0.0311
      4 C         141.1880  141.9767  158.7066 C.3     1  UNL1        0.0973
      5 N         139.9930  141.9907  159.6131 N.am    1  UNL1       -0.2455
      6 C         139.2220  143.2057  160.0369 C.2     1  UNL1        0.4049
      7 O         138.0425  143.0637  160.9526 O.2     1  UNL1       -0.2262
      8 C         139.7043  140.5765  160.0215 C.3     1  UNL1        0.1053
      9 C         140.7209  139.6885  159.3673 C.3     1  UNL1        0.0903
     10 C         141.1708  138.2656  159.2153 C.3     1  UNL1        0.0261
     11 C         139.8040  138.8231  160.1799 C.2     1  UNL1        0.2267
     12 O         138.8402  137.9005  159.4944 O.2     1  UNL1       -0.2748
     13 N         139.8508  138.8804  161.6781 N.am    1  UNL1       -0.2750
     14 C         138.9339  138.0150  162.4908 C.3     1  UNL1        0.1000
     15 C         138.9807  138.0723  163.9889 C.3     1  UNL1        0.0670
     16 C         139.9445  138.9949  164.6744 C.ar    1  UNL1        0.0583
     17 N         139.9913  139.0522  166.1726 N.ar    1  UNL1       -0.2484
     18 C         140.9551  139.9748  166.8582 C.ar    1  UNL1        0.1023
     19 C         141.8720  140.8402  166.0454 C.ar    1  UNL1        0.0902
     20 C         141.8252  140.7829  164.5473 C.ar    1  UNL1        0.0040
     21 C         140.8614  139.8603  163.8618 C.ar    1  UNL1        0.0113
     22 C         140.8146  139.8030  162.3636 C.3     1  UNL1        0.1213
     23 C         142.8358  141.7628  166.7309 C.3     1  UNL1        0.4200
     24 F         143.7995  142.6855  167.4165 F       1  UNL1       -0.1658
     25 F         143.8080  141.5858  165.6024 F       1  UNL1       -0.1658
     26 F         141.8636  141.9399  167.8595 F       1  UNL1       -0.1658
     27 N         143.1367  137.0366  157.8849 N.3     1  UNL1       -0.2975
     28 H         144.0067  137.3700  157.4696 H       1  UNL1        0.1232
     29 C         142.9497  134.6274  156.9306 C.3     1  UNL1        0.1591
     30 C         142.3475  133.6595  155.9557 C.3     1  UNL1        0.1729
     31 O         141.3302  134.1327  154.9602 O.3     1  UNL1       -0.3511
     32 C         140.9150  135.5740  154.9396 C.3     1  UNL1        0.1437
     33 C         141.5172  136.5420  155.9145 C.3     1  UNL1        0.0503
     34 C         142.5345  136.0687  156.9100 C.3     1  UNL1        0.0865
     35 C         144.6055  132.8066  157.7632 C.3     1  UNL1        0.1742
     36 O         143.9670  134.1542  157.9261 O.3     1  UNL1       -0.3496
     37 O         139.6306  144.5625  159.5451 O.3     1  UNL1       -0.4330
     38 C         140.4957  145.4408  160.3996 C.3     1  UNL1        0.2274
     39 C         141.2438  144.8555  161.5605 C.3     1  UNL1        0.1202
     40 N         140.5602  144.6867  162.8850 N.3     1  UNL1       -0.2696
     41 C         141.1400  144.0216  164.0980 C.3     1  UNL1        0.0722
     42 C         140.1150  144.0772  165.1917 C.3     1  UNL1        0.0188
     43 C         138.9017  144.7768  164.6546 C.3     1  UNL1        0.0188
     44 C         139.1768  145.1534  163.2290 C.3     1  UNL1        0.0722
@<TRIPOS>BOND
     1    35    36    1
     2    36    29    1
     3    29    30    1
     4    30    31    1
     5    31    32    1
     6    32    33    1
     7    33    34    1
     8    34    27    1
     9     1    27    1
    10     1     2    1
    11     3     2    1
    12     3     4    1
    13     4     5    1
    14     5     6   am
    15     6     7    2
    16     6    37    1
    17    37    38    1
    18    38    39    1
    19    39    40    1
    20    40    41    1
    21    41    42    1
    22    42    43    1
    23    43    44    1
    24     5     8    1
    25     8     9    1
    26     9    11    1
    27    11    12    2
    28    11    13   am
    29    13    14    1
    30    14    15    1
    31    15    16    1
    32    16    17   ar
    33    17    18   ar
    34    18    19   ar
    35    19    23    1
    36    23    24    1
    37    23    25    1
    38    23    26    1
    39    19    20   ar
    40    20    21   ar
    41    21    22    1
    42     9    10    1
    43    34    29    1
    44    10     1    1
    45     9     3    1
    46    22    13    1
    47    44    40    1
    48    21    16   ar
    49    27    28    1
@<TRIPOS>MOLECULE
*****
 44 49 0 0 0
SMALL
GASTEIGER

@<TRIPOS>ATOM
      1 C         141.6308  143.9304  160.3312 C.3     1  UNL1        0.0546
      2 C         140.3199  144.4378  159.8075 C.3     1  UNL1        0.0180
      3 C         139.6856  143.3409  159.0048 C.3     1  UNL1        0.0311
      4 C         138.4834  142.9765  158.1850 C.3     1  UNL1        0.0973
      5 N         138.6593  141.5660  157.7059 N.am    1  UNL1       -0.2455
      6 C         137.6937  140.7978  156.8528 C.2     1  UNL1        0.4049
      7 O         138.0067  139.3871  156.4501 O.2     1  UNL1       -0.2262
      8 C         139.9701  141.0586  158.2295 C.3     1  UNL1        0.1053
      9 C         140.6044  142.1555  159.0323 C.3     1  UNL1        0.0903
     10 C         141.8066  142.5199  159.8520 C.3     1  UNL1        0.0261
     11 C         141.5233  140.9702  159.0598 C.2     1  UNL1        0.2267
     12 O         142.5163  140.7652  157.9544 O.2     1  UNL1       -0.2748
     13 N         141.4491  139.9898  160.1927 N.am    1  UNL1       -0.2750
     14 C         142.3679  138.8046  160.2202 C.3     1  UNL1        0.1000
     15 C         142.2937  137.8243  161.3531 C.3     1  UNL1        0.0670
     16 C         141.3007  138.0293  162.4585 C.ar    1  UNL1        0.0583
     17 N         141.2265  137.0489  163.5914 N.ar    1  UNL1       -0.2484
     18 C         140.2334  137.2539  164.6968 C.ar    1  UNL1        0.1023
     19 C         139.3146  138.4393  164.6693 C.ar    1  UNL1        0.0902
     20 C         139.3888  139.4196  163.5364 C.ar    1  UNL1        0.0040
     21 C         140.3818  139.2146  162.4310 C.ar    1  UNL1        0.0113
     22 C         140.4561  140.1949  161.2981 C.3     1  UNL1        0.1213
     23 C         138.3216  138.6443  165.7746 C.3     1  UNL1        0.4200
     24 F         137.3285  138.8493  166.8800 F       1  UNL1       -0.1658
     25 F         138.4177  140.1293  165.5856 F       1  UNL1       -0.1658
     26 F         138.2254  137.1594  165.9637 F       1  UNL1       -0.1658
     27 N         142.5963  144.6986  161.1842 N.3     1  UNL1       -0.2975
     28 H         143.3107  145.0706  160.5584 H       1  UNL1        0.1232
     29 C         142.9064  144.2595  163.7260 C.3     1  UNL1        0.1591
     30 C         143.6281  143.5721  164.8470 C.3     1  UNL1        0.1729
     31 O         144.7614  142.6364  164.5471 O.3     1  UNL1       -0.3511
     32 C         145.1731  142.3880  163.1262 C.3     1  UNL1        0.1437
     33 C         144.4514  143.0754  162.0052 C.3     1  UNL1        0.0503
     34 C         143.3180  144.0112  162.3052 C.3     1  UNL1        0.0865
     35 C         140.3674  144.6753  164.0875 C.3     1  UNL1        0.1742
     36 O         141.7731  145.1952  164.0259 O.3     1  UNL1       -0.3496
     37 O         136.4153  141.4402  156.4025 O.3     1  UNL1       -0.4330
     38 C         136.0242  141.3983  154.9550 C.3     1  UNL1        0.2274
     39 C         136.5701  142.4189  154.0008 C.3     1  UNL1        0.1202
     40 N         137.6264  143.3817  154.4559 N.3     1  UNL1       -0.2696
     41 C         137.3868  144.7447  155.0345 C.3     1  UNL1        0.0722
     42 C         138.7202  145.3559  155.3485 C.3     1  UNL1        0.0188
     43 C         139.7838  144.3707  154.9638 C.3     1  UNL1        0.0188
     44 C         139.1079  143.1506  154.4122 C.3     1  UNL1        0.0722
@<TRIPOS>BOND
     1    35    36    1
     2    36    29    1
     3    29    30    1
     4    30    31    1
     5    31    32    1
     6    32    33    1
     7    33    34    1
     8    34    27    1
     9     1    27    1
    10     1     2    1
    11     3     2    1
    12     3     4    1
    13     4     5    1
    14     5     6   am
    15     6     7    2
    16     6    37    1
    17    37    38    1
    18    38    39    1
    19    39    40    1
    20    40    41    1
    21    41    42    1
    22    42    43    1
    23    43    44    1
    24     5     8    1
    25     8     9    1
    26     9    11    1
    27    11    12    2
    28    11    13   am
    29    13    14    1
    30    14    15    1
    31    15    16    1
    32    16    17   ar
    33    17    18   ar
    34    18    19   ar
    35    19    23    1
    36    23    24    1
    37    23    25    1
    38    23    26    1
    39    19    20   ar
    40    20    21   ar
    41    21    22    1
    42     9    10    1
    43    34    29    1
    44    10     1    1
    45     9     3    1
    46    22    13    1
    47    44    40    1
    48    21    16   ar
    49    27    28    1
