@<TRIPOS>MOLECULE
*****
 35 39 0 0 0
SMALL
GASTEIGER

@<TRIPOS>ATOM
      1 C         140.2292  139.4801  160.4817 C.3     1  UNL1        0.0522
      2 C         139.7840  140.9120  160.4437 C.ar    1  UNL1        0.0637
      3 N         140.0484  141.7475  159.2263 N.ar    1  UNL1       -0.2180
      4 C         139.6032  143.1794  159.1882 C.ar    1  UNL1        0.2198
      5 N         138.8936  143.7758  160.3675 N.ar    1  UNL1       -0.2136
      6 C         138.6291  142.9403  161.5849 C.ar    1  UNL1        0.0854
      7 C         137.9195  143.5367  162.7642 C.ar    1  UNL1        0.0205
      8 C         137.6551  142.7012  163.9815 C.ar    1  UNL1        0.0162
      9 C         138.1003  141.2693  164.0196 C.ar    1  UNL1        0.0505
     10 C         138.8099  140.6729  162.8403 C.ar    1  UNL1        0.0173
     11 C         139.0743  141.5084  161.6230 C.ar    1  UNL1        0.0326
     12 N         139.8676  144.0149  157.9708 N.pl3   1  UNL1       -0.2781
     13 C         140.8957  145.1061  158.0189 C.3     1  UNL1        0.0950
     14 C         141.1601  145.9415  156.8015 C.3     1  UNL1        0.0375
     15 C         140.3965  145.6858  155.5360 C.3     1  UNL1        0.0609
     16 C         139.3684  144.5946  155.4880 C.3     1  UNL1        0.0375
     17 C         139.1040  143.7592  156.7053 C.3     1  UNL1        0.0950
     18 N         140.6609  146.5213  154.3186 N.3     1  UNL1       -0.2738
     19 C         141.4489  146.0995  153.1140 C.3     1  UNL1        0.0721
     20 C         141.4589  147.2428  152.1430 C.3     1  UNL1        0.0188
     21 C         140.6770  148.3711  152.7475 C.3     1  UNL1        0.0188
     22 C         140.1838  147.9253  154.0921 C.3     1  UNL1        0.0721
     23 N         137.8358  140.4337  165.2370 N.am    1  UNL1       -0.2809
     24 C         138.9732  140.0143  166.1203 C.2     1  UNL1        0.2707
     25 O         140.3751  140.4303  165.7863 O.2     1  UNL1       -0.2707
     26 H         136.9157  140.1607  165.4563 H       1  UNL1        0.1550
     27 C         138.7088  139.1788  167.3378 C.3     1  UNL1        0.2897
     28 O         138.9530  139.7464  168.7045 O.3     1  UNL1       -0.4656
     29 C         140.2487  140.4381  169.0087 C.ar    1  UNL1        0.1393
     30 C         141.5312  139.6600  169.0137 C.ar    1  UNL1        0.0378
     31 C         142.8269  140.3517  169.3180 C.ar    1  UNL1        0.0145
     32 C         142.8403  141.8215  169.6172 C.ar    1  UNL1        0.0579
     33 CL        144.1360  142.5132  169.9214 Cl      1  UNL1       -0.0822
     34 C         141.5579  142.5996  169.6122 C.ar    1  UNL1        0.0145
     35 C         140.2621  141.9079  169.3080 C.ar    1  UNL1        0.0378
@<TRIPOS>BOND
     1     1     2    1
     2     2     3   ar
     3     3     4   ar
     4     4    12    1
     5    12    13    1
     6    13    14    1
     7    14    15    1
     8    15    18    1
     9    18    19    1
    10    19    20    1
    11    20    21    1
    12    21    22    1
    13    15    16    1
    14    16    17    1
    15     4     5   ar
    16     5     6   ar
    17     6     7   ar
    18     7     8   ar
    19     8     9   ar
    20     9    23    1
    21    23    24   am
    22    24    25    2
    23    24    27    1
    24    27    28    1
    25    28    29    1
    26    29    30   ar
    27    30    31   ar
    28    31    32   ar
    29    32    33    1
    30    32    34   ar
    31    34    35   ar
    32     9    10   ar
    33    10    11   ar
    34    11     2   ar
    35    17    12    1
    36    11     6   ar
    37    22    18    1
    38    35    29   ar
    39    23    26    1
@<TRIPOS>MOLECULE
*****
 35 39 0 0 0
SMALL
GASTEIGER

@<TRIPOS>ATOM
      1 C         139.6328  146.3376  161.2737 C.3     1  UNL1        0.0522
      2 C         140.5301  145.1550  161.4890 C.ar    1  UNL1        0.0637
      3 N         140.5388  144.4515  162.8137 N.ar    1  UNL1       -0.2180
      4 C         141.4361  143.2689  163.0290 C.ar    1  UNL1        0.2198
      5 N         142.3247  142.7899  161.9196 N.ar    1  UNL1       -0.2136
      6 C         142.3160  143.4934  160.5948 C.ar    1  UNL1        0.0854
      7 C         143.2046  143.0143  159.4853 C.ar    1  UNL1        0.0205
      8 C         143.1959  143.7179  158.1606 C.ar    1  UNL1        0.0162
      9 C         142.2986  144.9005  157.9453 C.ar    1  UNL1        0.0505
     10 C         141.4100  145.3795  159.0548 C.ar    1  UNL1        0.0173
     11 C         141.4187  144.6760  160.3795 C.ar    1  UNL1        0.0326
     12 N         141.4448  142.5654  164.3538 N.pl3   1  UNL1       -0.2781
     13 C         142.2634  141.3219  164.5373 C.3     1  UNL1        0.0950
     14 C         142.2721  140.6185  165.8621 C.3     1  UNL1        0.0375
     15 C         141.4621  141.1584  167.0033 C.3     1  UNL1        0.0609
     16 C         140.6435  142.4019  166.8198 C.3     1  UNL1        0.0375
     17 C         140.6349  143.1053  165.4950 C.3     1  UNL1        0.0950
     18 N         141.4708  140.4549  168.3281 N.3     1  UNL1       -0.2738
     19 C         142.5332  139.5182  168.8220 C.3     1  UNL1        0.0721
     20 C         142.1377  139.0489  170.1907 C.3     1  UNL1        0.0188
     21 C         140.8308  139.6956  170.5427 C.3     1  UNL1        0.0188
     22 C         140.4186  140.5645  169.3915 C.3     1  UNL1        0.0721
     23 N         142.2899  145.6040  156.6205 N.am    1  UNL1       -0.2809
     24 C         141.2540  145.2557  155.5931 C.2     1  UNL1        0.2707
     25 O         140.2268  144.2039  155.8905 O.2     1  UNL1       -0.2707
     26 H         142.9641  146.2944  156.4254 H       1  UNL1        0.1550
     27 C         141.2454  145.9592  154.2683 C.3     1  UNL1        0.2897
     28 O         139.9872  146.6074  153.7716 O.3     1  UNL1       -0.4656
     29 C         139.6495  148.0078  154.1894 C.ar    1  UNL1        0.1393
     30 C         140.0434  149.1654  153.3205 C.ar    1  UNL1        0.0378
     31 C         139.7058  150.5659  153.7383 C.ar    1  UNL1        0.0145
     32 C         138.9743  150.8089  155.0252 C.ar    1  UNL1        0.0579
     33 CL        138.6367  152.2093  155.4430 Cl      1  UNL1       -0.0822
     34 C         138.5805  149.6514  155.8941 C.ar    1  UNL1        0.0145
     35 C         138.9181  148.2508  155.4762 C.ar    1  UNL1        0.0378
@<TRIPOS>BOND
     1     1     2    1
     2     2     3   ar
     3     3     4   ar
     4     4    12    1
     5    12    13    1
     6    13    14    1
     7    14    15    1
     8    15    18    1
     9    18    19    1
    10    19    20    1
    11    20    21    1
    12    21    22    1
    13    15    16    1
    14    16    17    1
    15     4     5   ar
    16     5     6   ar
    17     6     7   ar
    18     7     8   ar
    19     8     9   ar
    20     9    23    1
    21    23    24   am
    22    24    25    2
    23    24    27    1
    24    27    28    1
    25    28    29    1
    26    29    30   ar
    27    30    31   ar
    28    31    32   ar
    29    32    33    1
    30    32    34   ar
    31    34    35   ar
    32     9    10   ar
    33    10    11   ar
    34    11     2   ar
    35    17    12    1
    36    11     6   ar
    37    22    18    1
    38    35    29   ar
    39    23    26    1
@<TRIPOS>MOLECULE
*****
 35 39 0 0 0
SMALL
GASTEIGER

@<TRIPOS>ATOM
      1 C         143.6010  139.2193  160.4857 C.3     1  UNL1        0.0522
      2 C         142.9351  138.9451  159.1698 C.ar    1  UNL1        0.0637
      3 N         142.9783  137.5665  158.5802 N.ar    1  UNL1       -0.2180
      4 C         142.3124  137.2923  157.2644 C.ar    1  UNL1        0.2198
      5 N         141.6033  138.3967  156.5382 N.ar    1  UNL1       -0.2136
      6 C         141.5600  139.7753  157.1278 C.ar    1  UNL1        0.0854
      7 C         140.8509  140.8797  156.4015 C.ar    1  UNL1        0.0205
      8 C         140.8077  142.2583  156.9911 C.ar    1  UNL1        0.0162
      9 C         141.4736  142.5325  158.3070 C.ar    1  UNL1        0.0505
     10 C         142.1827  141.4281  159.0332 C.ar    1  UNL1        0.0173
     11 C         142.2259  140.0495  158.4436 C.ar    1  UNL1        0.0326
     12 N         142.3557  135.9137  156.6748 N.pl3   1  UNL1       -0.2781
     13 C         143.3486  134.9112  157.1837 C.3     1  UNL1        0.0950
     14 C         143.3918  133.5326  156.5941 C.3     1  UNL1        0.0375
     15 C         142.4421  133.1566  155.4957 C.3     1  UNL1        0.0609
     16 C         141.4491  134.1591  154.9868 C.3     1  UNL1        0.0375
     17 C         141.4059  135.5376  155.5764 C.3     1  UNL1        0.0950
     18 N         142.4853  131.7779  154.9061 N.3     1  UNL1       -0.2738
     19 C         141.6460  130.6100  155.3322 C.3     1  UNL1        0.0721
     20 C         142.0174  129.4355  154.4764 C.3     1  UNL1        0.0188
     21 C         143.0863  129.8774  153.5213 C.3     1  UNL1        0.0188
     22 C         143.3755  131.3251  153.7869 C.3     1  UNL1        0.0721
     23 N         141.4303  143.9111  158.8966 N.am    1  UNL1       -0.2809
     24 C         140.1840  144.3981  159.5744 C.2     1  UNL1        0.2707
     25 O         138.9810  143.5066  159.6627 O.2     1  UNL1       -0.2707
     26 H         142.2199  144.4963  158.8386 H       1  UNL1        0.1550
     27 C         140.1408  145.7768  160.1640 C.3     1  UNL1        0.2897
     28 O         139.3065  146.0462  161.3811 O.3     1  UNL1       -0.4656
     29 C         139.5015  145.2246  162.6208 C.ar    1  UNL1        0.1393
     30 C         140.8687  145.0881  163.2228 C.ar    1  UNL1        0.0378
     31 C         141.0637  144.2666  164.4626 C.ar    1  UNL1        0.0145
     32 C         139.8916  143.5815  165.1004 C.ar    1  UNL1        0.0579
     33 CL        140.0866  142.7599  166.3401 Cl      1  UNL1       -0.0822
     34 C         138.5245  143.7179  164.4985 C.ar    1  UNL1        0.0145
     35 C         138.3294  144.5395  163.2587 C.ar    1  UNL1        0.0378
@<TRIPOS>BOND
     1     1     2    1
     2     2     3   ar
     3     3     4   ar
     4     4    12    1
     5    12    13    1
     6    13    14    1
     7    14    15    1
     8    15    18    1
     9    18    19    1
    10    19    20    1
    11    20    21    1
    12    21    22    1
    13    15    16    1
    14    16    17    1
    15     4     5   ar
    16     5     6   ar
    17     6     7   ar
    18     7     8   ar
    19     8     9   ar
    20     9    23    1
    21    23    24   am
    22    24    25    2
    23    24    27    1
    24    27    28    1
    25    28    29    1
    26    29    30   ar
    27    30    31   ar
    28    31    32   ar
    29    32    33    1
    30    32    34   ar
    31    34    35   ar
    32     9    10   ar
    33    10    11   ar
    34    11     2   ar
    35    17    12    1
    36    11     6   ar
    37    22    18    1
    38    35    29   ar
    39    23    26    1
@<TRIPOS>MOLECULE
*****
 35 39 0 0 0
SMALL
GASTEIGER

@<TRIPOS>ATOM
      1 C         139.8170  139.7928  160.3549 C.3     1  UNL1        0.0522
      2 C         141.0039  139.5280  159.4767 C.ar    1  UNL1        0.0637
      3 N         141.0503  138.2896  158.6316 N.ar    1  UNL1       -0.2180
      4 C         142.2371  138.0249  157.7534 C.ar    1  UNL1        0.2198
      5 N         143.3777  138.9985  157.7203 N.ar    1  UNL1       -0.2136
      6 C         143.3314  140.2370  158.5654 C.ar    1  UNL1        0.0854
      7 C         144.4719  141.2107  158.5323 C.ar    1  UNL1        0.0205
      8 C         144.4256  142.4491  159.3773 C.ar    1  UNL1        0.0162
      9 C         143.2387  142.7138  160.2555 C.ar    1  UNL1        0.0505
     10 C         142.0981  141.7402  160.2886 C.ar    1  UNL1        0.0173
     11 C         142.1445  140.5018  159.4436 C.ar    1  UNL1        0.0326
     12 N         142.2835  136.7864  156.9083 N.pl3   1  UNL1       -0.2781
     13 C         143.3471  135.7558  157.1458 C.3     1  UNL1        0.0950
     14 C         143.3933  134.5174  156.3007 C.3     1  UNL1        0.0375
     15 C         142.3760  134.3096  155.2182 C.3     1  UNL1        0.0609
     16 C         141.3124  135.3403  154.9808 C.3     1  UNL1        0.0375
     17 C         141.2661  136.5787  155.8258 C.3     1  UNL1        0.0950
     18 N         142.4223  133.0711  154.3731 N.3     1  UNL1       -0.2738
     19 C         143.3502  131.9081  154.5635 C.3     1  UNL1        0.0721
     20 C         143.0503  130.8964  153.4974 C.3     1  UNL1        0.0188
     21 C         141.9369  131.4343  152.6481 C.3     1  UNL1        0.0188
     22 C         141.5488  132.7783  153.1894 C.3     1  UNL1        0.0721
     23 N         143.1924  143.9523  161.1006 N.am    1  UNL1       -0.2809
     24 C         143.6087  143.8938  162.5405 C.2     1  UNL1        0.2707
     25 O         144.0714  142.5968  163.1353 O.2     1  UNL1       -0.2707
     26 H         142.8887  144.8035  160.7102 H       1  UNL1        0.1550
     27 C         143.5624  145.1322  163.3855 C.3     1  UNL1        0.2897
     28 O         142.2595  145.5953  163.9668 O.3     1  UNL1       -0.4656
     29 C         141.0323  144.7438  163.8295 C.ar    1  UNL1        0.1393
     30 C         140.7983  143.6066  164.7794 C.ar    1  UNL1        0.0378
     31 C         139.5711  142.7551  164.6421 C.ar    1  UNL1        0.0145
     32 C         138.5778  143.0408  163.5550 C.ar    1  UNL1        0.0579
     33 CL        137.3506  142.1893  163.4177 Cl      1  UNL1       -0.0822
     34 C         138.8117  144.1779  162.6052 C.ar    1  UNL1        0.0145
     35 C         140.0390  145.0295  162.7424 C.ar    1  UNL1        0.0378
@<TRIPOS>BOND
     1     1     2    1
     2     2     3   ar
     3     3     4   ar
     4     4    12    1
     5    12    13    1
     6    13    14    1
     7    14    15    1
     8    15    18    1
     9    18    19    1
    10    19    20    1
    11    20    21    1
    12    21    22    1
    13    15    16    1
    14    16    17    1
    15     4     5   ar
    16     5     6   ar
    17     6     7   ar
    18     7     8   ar
    19     8     9   ar
    20     9    23    1
    21    23    24   am
    22    24    25    2
    23    24    27    1
    24    27    28    1
    25    28    29    1
    26    29    30   ar
    27    30    31   ar
    28    31    32   ar
    29    32    33    1
    30    32    34   ar
    31    34    35   ar
    32     9    10   ar
    33    10    11   ar
    34    11     2   ar
    35    17    12    1
    36    11     6   ar
    37    22    18    1
    38    35    29   ar
    39    23    26    1
@<TRIPOS>MOLECULE
*****
 35 39 0 0 0
SMALL
GASTEIGER

@<TRIPOS>ATOM
      1 C         144.0645  140.3644  156.2596 C.3     1  UNL1        0.0522
      2 C         143.5450  139.2453  157.1126 C.ar    1  UNL1        0.0637
      3 N         143.3770  137.8736  156.5294 N.ar    1  UNL1       -0.2180
      4 C         142.8575  136.7544  157.3824 C.ar    1  UNL1        0.2198
      5 N         142.5059  137.0070  158.8185 N.ar    1  UNL1       -0.2136
      6 C         142.6738  138.3787  159.4018 C.ar    1  UNL1        0.0854
      7 C         142.3223  138.6313  160.8379 C.ar    1  UNL1        0.0205
      8 C         142.4902  140.0030  161.4211 C.ar    1  UNL1        0.0162
      9 C         143.0098  141.1222  160.5681 C.ar    1  UNL1        0.0505
     10 C         143.3613  140.8696  159.1320 C.ar    1  UNL1        0.0173
     11 C         143.1934  139.4979  158.5488 C.ar    1  UNL1        0.0326
     12 N         142.6895  135.3826  156.7992 N.pl3   1  UNL1       -0.2781
     13 C         143.4774  134.2315  157.3507 C.3     1  UNL1        0.0950
     14 C         143.3094  132.8599  156.7674 C.3     1  UNL1        0.0375
     15 C         142.3536  132.6393  155.6327 C.3     1  UNL1        0.0609
     16 C         141.5657  133.7904  155.0811 C.3     1  UNL1        0.0375
     17 C         141.7337  135.1620  155.6644 C.3     1  UNL1        0.0950
     18 N         142.1856  131.2675  155.0494 N.3     1  UNL1       -0.2738
     19 C         140.8874  130.5368  154.8743 C.3     1  UNL1        0.0721
     20 C         141.1857  129.2033  154.2556 C.3     1  UNL1        0.0188
     21 C         142.6685  129.1099  154.0483 C.3     1  UNL1        0.0188
     22 C         143.2864  130.3856  154.5389 C.3     1  UNL1        0.0721
     23 N         143.1777  142.4940  161.1514 N.am    1  UNL1       -0.2809
     24 C         144.3667  142.8025  162.0122 C.2     1  UNL1        0.2707
     25 O         145.3878  141.7394  162.2898 O.2     1  UNL1       -0.2707
     26 H         142.5076  143.1918  160.9692 H       1  UNL1        0.1550
     27 C         144.5347  144.1743  162.5954 C.3     1  UNL1        0.2897
     28 O         143.8843  144.5183  163.9026 O.3     1  UNL1       -0.4656
     29 C         142.4044  144.3428  164.0730 C.ar    1  UNL1        0.1393
     30 C         141.8755  143.2617  164.9683 C.ar    1  UNL1        0.0378
     31 C         140.3956  143.0863  165.1388 C.ar    1  UNL1        0.0145
     32 C         139.4445  143.9918  164.4139 C.ar    1  UNL1        0.0579
     33 CL        137.9646  143.8164  164.5843 Cl      1  UNL1       -0.0822
     34 C         139.9734  145.0729  163.5185 C.ar    1  UNL1        0.0145
     35 C         141.4533  145.2484  163.3481 C.ar    1  UNL1        0.0378
@<TRIPOS>BOND
     1     1     2    1
     2     2     3   ar
     3     3     4   ar
     4     4    12    1
     5    12    13    1
     6    13    14    1
     7    14    15    1
     8    15    18    1
     9    18    19    1
    10    19    20    1
    11    20    21    1
    12    21    22    1
    13    15    16    1
    14    16    17    1
    15     4     5   ar
    16     5     6   ar
    17     6     7   ar
    18     7     8   ar
    19     8     9   ar
    20     9    23    1
    21    23    24   am
    22    24    25    2
    23    24    27    1
    24    27    28    1
    25    28    29    1
    26    29    30   ar
    27    30    31   ar
    28    31    32   ar
    29    32    33    1
    30    32    34   ar
    31    34    35   ar
    32     9    10   ar
    33    10    11   ar
    34    11     2   ar
    35    17    12    1
    36    11     6   ar
    37    22    18    1
    38    35    29   ar
    39    23    26    1
@<TRIPOS>MOLECULE
*****
 35 39 0 0 0
SMALL
GASTEIGER

@<TRIPOS>ATOM
      1 C         143.0206  137.4935  160.1779 C.3     1  UNL1        0.0522
      2 C         141.9629  138.4907  160.5479 C.ar    1  UNL1        0.0637
      3 N         141.8177  138.9363  161.9727 N.ar    1  UNL1       -0.2180
      4 C         140.7600  139.9334  162.3427 C.ar    1  UNL1        0.2198
      5 N         139.8474  140.4850  161.2878 N.ar    1  UNL1       -0.2136
      6 C         139.9925  140.0394  159.8628 C.ar    1  UNL1        0.0854
      7 C         139.0799  140.5910  158.8079 C.ar    1  UNL1        0.0205
      8 C         139.2251  140.1454  157.3830 C.ar    1  UNL1        0.0162
      9 C         140.2828  139.1482  157.0130 C.ar    1  UNL1        0.0505
     10 C         141.1954  138.5966  158.0680 C.ar    1  UNL1        0.0173
     11 C         141.0503  139.0422  159.4928 C.ar    1  UNL1        0.0326
     12 N         140.6149  140.3790  163.7677 N.pl3   1  UNL1       -0.2781
     13 C         139.8101  139.5587  164.7317 C.3     1  UNL1        0.0950
     14 C         139.6651  140.0043  166.1566 C.3     1  UNL1        0.0375
     15 C         140.3247  141.2702  166.6174 C.3     1  UNL1        0.0609
     16 C         141.1295  142.0905  165.6534 C.3     1  UNL1        0.0375
     17 C         141.2745  141.6449  164.2285 C.3     1  UNL1        0.0950
     18 N         140.1796  141.7158  168.0424 N.3     1  UNL1       -0.2738
     19 C         139.6712  140.8806  169.1799 C.3     1  UNL1        0.0721
     20 C         139.6948  141.7234  170.4205 C.3     1  UNL1        0.0188
     21 C         140.2178  143.0795  170.0498 C.3     1  UNL1        0.0188
     22 C         140.5175  143.0748  168.5800 C.3     1  UNL1        0.0721
     23 N         140.4279  138.7026  155.5881 N.am    1  UNL1       -0.2809
     24 C         139.6880  137.4919  155.1018 C.2     1  UNL1        0.2707
     25 O         138.8029  136.7266  156.0404 O.2     1  UNL1       -0.2707
     26 H         141.0089  139.2048  154.9720 H       1  UNL1        0.1550
     27 C         139.8331  137.0463  153.6768 C.3     1  UNL1        0.2897
     28 O         140.7885  135.9434  153.3295 O.3     1  UNL1       -0.4656
     29 C         141.6597  135.3432  154.3929 C.ar    1  UNL1        0.1393
     30 C         141.3025  134.0164  154.9947 C.ar    1  UNL1        0.0378
     31 C         142.1736  133.4163  156.0581 C.ar    1  UNL1        0.0145
     32 C         143.4020  134.1428  156.5197 C.ar    1  UNL1        0.0579
     33 CL        144.2732  133.5427  157.5831 Cl      1  UNL1       -0.0822
     34 C         143.7593  135.4695  155.9180 C.ar    1  UNL1        0.0145
     35 C         142.8881  136.0698  154.8546 C.ar    1  UNL1        0.0378
@<TRIPOS>BOND
     1     1     2    1
     2     2     3   ar
     3     3     4   ar
     4     4    12    1
     5    12    13    1
     6    13    14    1
     7    14    15    1
     8    15    18    1
     9    18    19    1
    10    19    20    1
    11    20    21    1
    12    21    22    1
    13    15    16    1
    14    16    17    1
    15     4     5   ar
    16     5     6   ar
    17     6     7   ar
    18     7     8   ar
    19     8     9   ar
    20     9    23    1
    21    23    24   am
    22    24    25    2
    23    24    27    1
    24    27    28    1
    25    28    29    1
    26    29    30   ar
    27    30    31   ar
    28    31    32   ar
    29    32    33    1
    30    32    34   ar
    31    34    35   ar
    32     9    10   ar
    33    10    11   ar
    34    11     2   ar
    35    17    12    1
    36    11     6   ar
    37    22    18    1
    38    35    29   ar
    39    23    26    1
@<TRIPOS>MOLECULE
*****
 35 39 0 0 0
SMALL
GASTEIGER

@<TRIPOS>ATOM
      1 C         138.8913  140.0827  155.5280 C.3     1  UNL1        0.0522
      2 C         139.9137  139.3868  156.3767 C.ar    1  UNL1        0.0637
      3 N         140.4590  138.0551  155.9535 N.ar    1  UNL1       -0.2180
      4 C         141.4815  137.3593  156.8023 C.ar    1  UNL1        0.2198
      5 N         141.9586  137.9951  158.0742 N.ar    1  UNL1       -0.2136
      6 C         141.4133  139.3269  158.4975 C.ar    1  UNL1        0.0854
      7 C         141.8904  139.9627  159.7695 C.ar    1  UNL1        0.0205
      8 C         141.3451  141.2944  160.1927 C.ar    1  UNL1        0.0162
      9 C         140.3227  141.9903  159.3440 C.ar    1  UNL1        0.0505
     10 C         139.8455  141.3544  158.0720 C.ar    1  UNL1        0.0173
     11 C         140.3909  140.0227  157.6488 C.ar    1  UNL1        0.0326
     12 N         142.0268  136.0275  156.3790 N.pl3   1  UNL1       -0.2781
     13 C         143.2255  135.4528  157.0737 C.3     1  UNL1        0.0950
     14 C         143.7708  134.1211  156.6504 C.3     1  UNL1        0.0375
     15 C         143.1173  133.3641  155.5324 C.3     1  UNL1        0.0609
     16 C         141.9186  133.9389  154.8376 C.3     1  UNL1        0.0375
     17 C         141.3733  135.2705  155.2609 C.3     1  UNL1        0.0950
     18 N         143.6626  132.0323  155.1091 N.3     1  UNL1       -0.2738
     19 C         143.3504  131.3189  153.8271 C.3     1  UNL1        0.0721
     20 C         144.1106  130.0259  153.8191 C.3     1  UNL1        0.0188
     21 C         144.8928  129.9402  155.0962 C.3     1  UNL1        0.0188
     22 C         144.6159  131.1803  155.8934 C.3     1  UNL1        0.0721
     23 N         139.7773  143.3220  159.7673 N.am    1  UNL1       -0.2809
     24 C         140.6918  144.5057  159.8790 C.2     1  UNL1        0.2707
     25 O         142.1516  144.3578  159.5676 O.2     1  UNL1       -0.2707
     26 H         138.8192  143.4192  159.9717 H       1  UNL1        0.1550
     27 C         140.1465  145.8375  160.3023 C.3     1  UNL1        0.2897
     28 O         139.1684  145.9213  161.4365 O.3     1  UNL1       -0.4656
     29 C         139.4061  145.1349  162.6915 C.ar    1  UNL1        0.1393
     30 C         138.2640  144.4331  163.3645 C.ar    1  UNL1        0.0378
     31 C         138.5017  143.6467  164.6195 C.ar    1  UNL1        0.0145
     32 C         139.8816  143.5622  165.2015 C.ar    1  UNL1        0.0579
     33 CL        140.1193  142.7758  166.4565 Cl      1  UNL1       -0.0822
     34 C         141.0237  144.2640  164.5286 C.ar    1  UNL1        0.0145
     35 C         140.7860  145.0504  163.2735 C.ar    1  UNL1        0.0378
@<TRIPOS>BOND
     1     1     2    1
     2     2     3   ar
     3     3     4   ar
     4     4    12    1
     5    12    13    1
     6    13    14    1
     7    14    15    1
     8    15    18    1
     9    18    19    1
    10    19    20    1
    11    20    21    1
    12    21    22    1
    13    15    16    1
    14    16    17    1
    15     4     5   ar
    16     5     6   ar
    17     6     7   ar
    18     7     8   ar
    19     8     9   ar
    20     9    23    1
    21    23    24   am
    22    24    25    2
    23    24    27    1
    24    27    28    1
    25    28    29    1
    26    29    30   ar
    27    30    31   ar
    28    31    32   ar
    29    32    33    1
    30    32    34   ar
    31    34    35   ar
    32     9    10   ar
    33    10    11   ar
    34    11     2   ar
    35    17    12    1
    36    11     6   ar
    37    22    18    1
    38    35    29   ar
    39    23    26    1
@<TRIPOS>MOLECULE
*****
 35 39 0 0 0
SMALL
GASTEIGER

@<TRIPOS>ATOM
      1 C         138.4470  140.5094  164.4920 C.3     1  UNL1        0.0522
      2 C         139.5510  141.4193  164.0411 C.ar    1  UNL1        0.0637
      3 N         139.4634  142.1014  162.7080 N.ar    1  UNL1       -0.2180
      4 C         140.5673  143.0113  162.2571 C.ar    1  UNL1        0.2198
      5 N         141.7588  143.2393  163.1393 N.ar    1  UNL1       -0.2136
      6 C         141.8465  142.5572  164.4724 C.ar    1  UNL1        0.0854
      7 C         143.0380  142.7852  165.3546 C.ar    1  UNL1        0.0205
      8 C         143.1256  142.1032  166.6877 C.ar    1  UNL1        0.0162
      9 C         142.0217  141.1932  167.1386 C.ar    1  UNL1        0.0505
     10 C         140.8301  140.9653  166.2564 C.ar    1  UNL1        0.0173
     11 C         140.7425  141.6473  164.9233 C.ar    1  UNL1        0.0326
     12 N         140.4797  143.6934  160.9239 N.pl3   1  UNL1       -0.2781
     13 C         141.1663  145.0093  160.7082 C.3     1  UNL1        0.0950
     14 C         141.0787  145.6913  159.3751 C.3     1  UNL1        0.0375
     15 C         140.3043  145.0573  158.2577 C.3     1  UNL1        0.0609
     16 C         139.6176  143.7413  158.4735 C.3     1  UNL1        0.0375
     17 C         139.7053  143.0593  159.8066 C.3     1  UNL1        0.0950
     18 N         140.2167  145.7393  156.9246 N.3     1  UNL1       -0.2738
     19 C         139.2152  146.7854  156.5336 C.3     1  UNL1        0.0721
     20 C         139.4947  147.1876  155.1158 C.3     1  UNL1        0.0188
     21 C         140.6688  146.3901  154.6306 C.3     1  UNL1        0.0188
     22 C         141.1150  145.4950  155.7485 C.3     1  UNL1        0.0721
     23 N         142.1093  140.5112  168.4717 N.am    1  UNL1       -0.2809
     24 C         142.8286  139.2010  168.5980 C.2     1  UNL1        0.2707
     25 O         143.4603  138.5728  167.3913 O.2     1  UNL1       -0.2707
     26 H         141.6947  140.9235  169.2638 H       1  UNL1        0.1550
     27 C         142.9162  138.5189  169.9312 C.3     1  UNL1        0.2897
     28 O         143.3896  137.0982  170.0171 O.3     1  UNL1       -0.4656
     29 C         144.2917  136.6748  171.1382 C.ar    1  UNL1        0.1393
     30 C         144.4215  135.2221  171.4887 C.ar    1  UNL1        0.0378
     31 C         145.3236  134.7987  172.6098 C.ar    1  UNL1        0.0145
     32 C         146.0961  135.8280  173.3804 C.ar    1  UNL1        0.0579
     33 CL        146.9982  135.4046  174.5014 Cl      1  UNL1       -0.0822
     34 C         145.9664  137.2807  173.0299 C.ar    1  UNL1        0.0145
     35 C         145.0642  137.7041  171.9088 C.ar    1  UNL1        0.0378
@<TRIPOS>BOND
     1     1     2    1
     2     2     3   ar
     3     3     4   ar
     4     4    12    1
     5    12    13    1
     6    13    14    1
     7    14    15    1
     8    15    18    1
     9    18    19    1
    10    19    20    1
    11    20    21    1
    12    21    22    1
    13    15    16    1
    14    16    17    1
    15     4     5   ar
    16     5     6   ar
    17     6     7   ar
    18     7     8   ar
    19     8     9   ar
    20     9    23    1
    21    23    24   am
    22    24    25    2
    23    24    27    1
    24    27    28    1
    25    28    29    1
    26    29    30   ar
    27    30    31   ar
    28    31    32   ar
    29    32    33    1
    30    32    34   ar
    31    34    35   ar
    32     9    10   ar
    33    10    11   ar
    34    11     2   ar
    35    17    12    1
    36    11     6   ar
    37    22    18    1
    38    35    29   ar
    39    23    26    1
@<TRIPOS>MOLECULE
*****
 35 39 0 0 0
SMALL
GASTEIGER

@<TRIPOS>ATOM
      1 C         144.2690  140.4741  164.1599 C.3     1  UNL1        0.0522
      2 C         143.5465  140.3488  162.8513 C.ar    1  UNL1        0.0637
      3 N         144.2252  140.7575  161.5777 N.ar    1  UNL1       -0.2180
      4 C         143.5027  140.6322  160.2692 C.ar    1  UNL1        0.2198
      5 N         142.1015  140.0982  160.2342 N.ar    1  UNL1       -0.2136
      6 C         141.4226  139.6894  161.5079 C.ar    1  UNL1        0.0854
      7 C         140.0214  139.1553  161.4730 C.ar    1  UNL1        0.0205
      8 C         139.3427  138.7466  162.7466 C.ar    1  UNL1        0.0162
      9 C         140.0652  138.8719  164.0552 C.ar    1  UNL1        0.0505
     10 C         141.4664  139.4060  164.0901 C.ar    1  UNL1        0.0173
     11 C         142.1451  139.8147  162.8165 C.ar    1  UNL1        0.0326
     12 N         144.1815  141.0410  158.9955 N.pl3   1  UNL1       -0.2781
     13 C         144.9806  142.3094  158.9451 C.3     1  UNL1        0.0950
     14 C         145.6593  142.7182  157.6715 C.3     1  UNL1        0.0375
     15 C         145.5391  141.8584  156.4482 C.3     1  UNL1        0.0609
     16 C         144.7400  140.5900  156.4986 C.3     1  UNL1        0.0375
     17 C         144.0613  140.1813  157.7722 C.3     1  UNL1        0.0950
     18 N         146.2179  142.2672  155.1746 N.3     1  UNL1       -0.2738
     19 C         145.7629  143.3496  154.2411 C.3     1  UNL1        0.0721
     20 C         146.7346  143.4168  153.1004 C.3     1  UNL1        0.0188
     21 C         147.7902  142.3758  153.3289 C.3     1  UNL1        0.0188
     22 C         147.4709  141.6654  154.6108 C.3     1  UNL1        0.0721
     23 N         139.3863  138.4631  165.3289 N.am    1  UNL1       -0.2809
     24 C         138.7701  139.5027  166.2174 C.2     1  UNL1        0.2707
     25 O         138.8326  140.9511  165.8323 O.2     1  UNL1       -0.2707
     26 H         139.3453  137.5125  165.5816 H       1  UNL1        0.1550
     27 C         138.0913  139.0939  167.4910 C.3     1  UNL1        0.2897
     28 O         138.6606  139.5157  168.8131 O.3     1  UNL1       -0.4656
     29 C         139.9545  140.2727  168.8653 C.ar    1  UNL1        0.1393
     30 C         141.2542  139.5513  168.6641 C.ar    1  UNL1        0.0378
     31 C         142.5480  140.3084  168.7163 C.ar    1  UNL1        0.0145
     32 C         142.5423  141.7868  168.9697 C.ar    1  UNL1        0.0579
     33 CL        143.8361  142.5438  169.0219 Cl      1  UNL1       -0.0822
     34 C         141.2426  142.5082  169.1709 C.ar    1  UNL1        0.0145
     35 C         139.9487  141.7511  169.1187 C.ar    1  UNL1        0.0378
@<TRIPOS>BOND
     1     1     2    1
     2     2     3   ar
     3     3     4   ar
     4     4    12    1
     5    12    13    1
     6    13    14    1
     7    14    15    1
     8    15    18    1
     9    18    19    1
    10    19    20    1
    11    20    21    1
    12    21    22    1
    13    15    16    1
    14    16    17    1
    15     4     5   ar
    16     5     6   ar
    17     6     7   ar
    18     7     8   ar
    19     8     9   ar
    20     9    23    1
    21    23    24   am
    22    24    25    2
    23    24    27    1
    24    27    28    1
    25    28    29    1
    26    29    30   ar
    27    30    31   ar
    28    31    32   ar
    29    32    33    1
    30    32    34   ar
    31    34    35   ar
    32     9    10   ar
    33    10    11   ar
    34    11     2   ar
    35    17    12    1
    36    11     6   ar
    37    22    18    1
    38    35    29   ar
    39    23    26    1
