@<TRIPOS>MOLECULE
*****
 36 40 0 0 0
SMALL
GASTEIGER

@<TRIPOS>ATOM
      1 C         142.0020  143.2685  159.4600 C.ar    1  UNL1        0.2227
      2 N         142.8738  144.0175  160.4237 N.ar    1  UNL1       -0.1988
      3 C         143.7046  143.2675  161.4223 C.ar    1  UNL1        0.1345
      4 C         143.6636  141.7684  161.4572 C.ar    1  UNL1        0.0674
      5 C         144.4943  141.0184  162.4558 C.ar    1  UNL1        0.0074
      6 C         144.4532  139.5194  162.4906 C.ar    1  UNL1        0.0209
      7 C         143.5814  138.7704  161.5269 C.ar    1  UNL1        0.1006
      8 N         142.7506  139.5204  160.5283 N.ar    1  UNL1       -0.2249
      9 C         142.7917  141.0194  160.4934 C.ar    1  UNL1        0.1678
     10 N         141.9609  141.7695  159.4948 N.ar    1  UNL1       -0.1944
     11 O         137.5987  145.5591  154.7045 O.2     1  UNL1       -0.2734
     12 C         138.6789  146.2689  155.4655 C.2     1  UNL1        0.2400
     13 N         139.5097  145.5188  156.4642 N.am    1  UNL1       -0.2750
     14 C         139.2602  144.0589  156.7017 C.3     1  UNL1        0.1150
     15 C         140.0909  143.3088  157.7003 C.3     1  UNL1        0.1151
     16 N         141.1712  144.0186  158.4613 N.pl3   1  UNL1       -0.2746
     17 C         141.4207  145.4785  158.2237 C.3     1  UNL1        0.1151
     18 C         140.5900  146.2286  157.2252 C.3     1  UNL1        0.1150
     19 C         138.9285  147.7288  155.2279 C.3     1  UNL1        0.1317
     20 C         139.8334  148.1633  154.1133 C.3     1  UNL1        0.0251
     21 C         140.0830  149.6232  153.8757 C.3     1  UNL1        0.0033
     22 C         139.4276  150.6486  154.7528 C.3     1  UNL1        0.0171
     23 C         138.5227  150.2140  155.8673 C.3     1  UNL1        0.0689
     24 N         138.2731  148.7541  156.1049 N.3     1  UNL1       -0.2913
     25 H         137.2665  148.6105  156.0242 H       1  UNL1        0.1236
     26 N         144.5765  144.0165  162.3861 N.pl3   1  UNL1       -0.3143
     27 H         145.5480  144.0660  162.2349 H       1  UNL1        0.1485
     28 C         143.9681  144.6901  163.5803 C.3     1  UNL1        0.1162
     29 C         142.5235  144.4632  163.9143 C.ar    1  UNL1        0.0080
     30 C         141.4693  145.3554  163.3288 C.ar    1  UNL1       -0.0009
     31 C         140.0246  145.1286  163.6628 C.ar    1  UNL1        0.0112
     32 C         139.6342  144.0096  164.5824 C.ar    1  UNL1        0.0585
     33 CL        138.1895  143.7828  164.9164 Cl      1  UNL1       -0.0822
     34 C         140.6884  143.1175  165.1679 C.ar    1  UNL1        0.0225
     35 C         142.1330  143.3443  164.8338 C.ar    1  UNL1        0.0561
     36 CL        143.1872  142.4522  165.4194 Cl      1  UNL1       -0.0825
@<TRIPOS>BOND
     1    11    12    2
     2    19    12    1
     3    19    20    1
     4    20    21    1
     5    21    22    1
     6    22    23    1
     7    23    24    1
     8    12    13   am
     9    13    14    1
    10    14    15    1
    11    15    16    1
    12    16     1    1
    13     1     2   ar
    14     2     3   ar
    15     3    26    1
    16    26    28    1
    17    28    29    1
    18    29    30   ar
    19    30    31   ar
    20    31    32   ar
    21    32    33    1
    22    32    34   ar
    23    34    35   ar
    24    35    36    1
    25     3     4   ar
    26     4     5   ar
    27     5     6   ar
    28     6     7   ar
    29     7     8   ar
    30     8     9   ar
    31     9    10   ar
    32    16    17    1
    33    17    18    1
    34    24    19    1
    35    18    13    1
    36    10     1   ar
    37    35    29   ar
    38     9     4   ar
    39    24    25    1
    40    26    27    1
@<TRIPOS>MOLECULE
*****
 36 40 0 0 0
SMALL
GASTEIGER

@<TRIPOS>ATOM
      1 C         142.2450  143.1179  159.4040 C.ar    1  UNL1        0.2227
      2 N         142.6293  141.6991  159.1050 N.ar    1  UNL1       -0.1988
      3 C         143.5011  140.9408  160.0615 C.ar    1  UNL1        0.1345
      4 C         143.9886  141.6012  161.3170 C.ar    1  UNL1        0.0674
      5 C         144.8604  140.8429  162.2734 C.ar    1  UNL1        0.0074
      6 C         145.3478  141.5034  163.5289 C.ar    1  UNL1        0.0209
      7 C         144.9635  142.9221  163.8279 C.ar    1  UNL1        0.1006
      8 N         144.0917  143.6804  162.8714 N.ar    1  UNL1       -0.2249
      9 C         143.6043  143.0200  161.6160 C.ar    1  UNL1        0.1678
     10 N         142.7324  143.7783  160.6594 N.ar    1  UNL1       -0.1944
     11 O         137.6535  145.4451  154.8485 O.2     1  UNL1       -0.2734
     12 C         138.7577  146.1512  155.5779 C.2     1  UNL1        0.2400
     13 N         139.6296  145.3928  156.5344 N.am    1  UNL1       -0.2750
     14 C         139.3971  143.9285  156.7615 C.3     1  UNL1        0.1150
     15 C         140.2689  143.1701  157.7180 C.3     1  UNL1        0.1151
     16 N         141.3731  143.8762  158.4474 N.pl3   1  UNL1       -0.2746
     17 C         141.6056  145.3406  158.2204 C.3     1  UNL1        0.1151
     18 C         140.7338  146.0989  157.2639 C.3     1  UNL1        0.1150
     19 C         138.9902  147.6155  155.3508 C.3     1  UNL1        0.1317
     20 C         139.8883  148.0687  154.2381 C.3     1  UNL1        0.0251
     21 C         140.1208  149.5331  154.0110 C.3     1  UNL1        0.0033
     22 C         139.4551  150.5443  154.8967 C.3     1  UNL1        0.0171
     23 C         138.5571  150.0911  156.0094 C.3     1  UNL1        0.0689
     24 N         138.3246  148.6268  156.2365 N.3     1  UNL1       -0.2913
     25 H         137.3196  148.4723  156.1562 H       1  UNL1        0.1236
     26 N         143.8855  139.5220  159.7625 N.pl3   1  UNL1       -0.3143
     27 H         144.8271  139.2934  159.5884 H       1  UNL1        0.1485
     28 C         142.8352  138.4517  159.7287 C.3     1  UNL1        0.1162
     29 C         141.9414  138.2402  160.9146 C.ar    1  UNL1        0.0080
     30 C         142.5373  137.9569  162.2618 C.ar    1  UNL1       -0.0009
     31 C         141.6435  137.7454  163.4477 C.ar    1  UNL1        0.0112
     32 C         140.1538  137.8172  163.2865 C.ar    1  UNL1        0.0585
     33 CL        139.2601  137.6057  164.4724 Cl      1  UNL1       -0.0822
     34 C         139.5581  138.1005  161.9393 C.ar    1  UNL1        0.0225
     35 C         140.4519  138.3120  160.7534 C.ar    1  UNL1        0.0561
     36 CL        139.8560  138.5954  159.4063 Cl      1  UNL1       -0.0825
@<TRIPOS>BOND
     1    11    12    2
     2    19    12    1
     3    19    20    1
     4    20    21    1
     5    21    22    1
     6    22    23    1
     7    23    24    1
     8    12    13   am
     9    13    14    1
    10    14    15    1
    11    15    16    1
    12    16     1    1
    13     1     2   ar
    14     2     3   ar
    15     3    26    1
    16    26    28    1
    17    28    29    1
    18    29    30   ar
    19    30    31   ar
    20    31    32   ar
    21    32    33    1
    22    32    34   ar
    23    34    35   ar
    24    35    36    1
    25     3     4   ar
    26     4     5   ar
    27     5     6   ar
    28     6     7   ar
    29     7     8   ar
    30     8     9   ar
    31     9    10   ar
    32    16    17    1
    33    17    18    1
    34    24    19    1
    35    18    13    1
    36    10     1   ar
    37    35    29   ar
    38     9     4   ar
    39    24    25    1
    40    26    27    1
@<TRIPOS>MOLECULE
*****
 36 40 0 0 0
SMALL
GASTEIGER

@<TRIPOS>ATOM
      1 C         142.6894  142.8361  160.5768 C.ar    1  UNL1        0.2227
      2 N         143.4979  143.4737  161.6676 N.ar    1  UNL1       -0.1988
      3 C         142.8083  144.1181  162.8334 C.ar    1  UNL1        0.1345
      4 C         141.3102  144.1249  162.9085 C.ar    1  UNL1        0.0674
      5 C         140.6206  144.7693  164.0743 C.ar    1  UNL1        0.0074
      6 C         139.1225  144.7761  164.1493 C.ar    1  UNL1        0.0209
      7 C         138.3140  144.1385  163.0585 C.ar    1  UNL1        0.1006
      8 N         139.0036  143.4942  161.8927 N.ar    1  UNL1       -0.2249
      9 C         140.5017  143.4873  161.8177 C.ar    1  UNL1        0.1678
     10 N         141.1913  142.8429  160.6518 N.ar    1  UNL1       -0.1944
     11 O         145.1516  138.8309  155.5622 O.2     1  UNL1       -0.2734
     12 C         145.4481  140.2587  155.9134 C.2     1  UNL1        0.2400
     13 N         144.7584  140.9031  157.0793 N.am    1  UNL1       -0.2750
     14 C         143.7722  140.1196  157.8939 C.3     1  UNL1        0.1150
     15 C         143.0826  140.7639  159.0597 C.3     1  UNL1        0.1151
     16 N         143.3791  142.1917  159.4109 N.pl3   1  UNL1       -0.2746
     17 C         144.3653  142.9752  158.5963 C.3     1  UNL1        0.1151
     18 C         145.0549  142.3309  157.4305 C.3     1  UNL1        0.1150
     19 C         146.4342  141.0422  155.0988 C.3     1  UNL1        0.1317
     20 C         146.0543  141.5385  153.7352 C.3     1  UNL1        0.0251
     21 C         147.0404  142.3220  152.9205 C.3     1  UNL1        0.0033
     22 C         148.4066  142.6091  153.4695 C.3     1  UNL1        0.0171
     23 C         148.7865  142.1128  154.8331 C.3     1  UNL1        0.0689
     24 N         147.8003  141.3293  155.6477 N.3     1  UNL1       -0.2913
     25 H         147.6656  141.8415  156.5194 H       1  UNL1        0.1236
     26 N         143.6168  144.7556  163.9242 N.pl3   1  UNL1       -0.3143
     27 H         143.6245  145.7351  164.0230 H       1  UNL1        0.1485
     28 C         144.4136  143.9008  164.8646 C.3     1  UNL1        0.1162
     29 C         144.0245  142.4698  165.0899 C.ar    1  UNL1        0.0080
     30 C         142.8866  142.1378  166.0092 C.ar    1  UNL1       -0.0009
     31 C         142.4975  140.7068  166.2345 C.ar    1  UNL1        0.0112
     32 C         143.2462  139.6078  165.5404 C.ar    1  UNL1        0.0585
     33 CL        142.8570  138.1767  165.7657 Cl      1  UNL1       -0.0822
     34 C         144.3840  139.9398  164.6212 C.ar    1  UNL1        0.0225
     35 C         144.7731  141.3708  164.3959 C.ar    1  UNL1        0.0561
     36 CL        145.9110  141.7028  163.4765 Cl      1  UNL1       -0.0825
@<TRIPOS>BOND
     1    11    12    2
     2    19    12    1
     3    19    20    1
     4    20    21    1
     5    21    22    1
     6    22    23    1
     7    23    24    1
     8    12    13   am
     9    13    14    1
    10    14    15    1
    11    15    16    1
    12    16     1    1
    13     1     2   ar
    14     2     3   ar
    15     3    26    1
    16    26    28    1
    17    28    29    1
    18    29    30   ar
    19    30    31   ar
    20    31    32   ar
    21    32    33    1
    22    32    34   ar
    23    34    35   ar
    24    35    36    1
    25     3     4   ar
    26     4     5   ar
    27     5     6   ar
    28     6     7   ar
    29     7     8   ar
    30     8     9   ar
    31     9    10   ar
    32    16    17    1
    33    17    18    1
    34    24    19    1
    35    18    13    1
    36    10     1   ar
    37    35    29   ar
    38     9     4   ar
    39    24    25    1
    40    26    27    1
@<TRIPOS>MOLECULE
*****
 36 40 0 0 0
SMALL
GASTEIGER

@<TRIPOS>ATOM
      1 C         138.0717  141.0187  158.3807 C.ar    1  UNL1        0.2227
      2 N         136.9850  140.4171  157.5397 N.ar    1  UNL1       -0.1988
      3 C         136.4922  141.1402  156.3214 C.ar    1  UNL1        0.1345
      4 C         137.0862  142.4650  155.9440 C.ar    1  UNL1        0.0674
      5 C         136.5934  143.1880  154.7257 C.ar    1  UNL1        0.0074
      6 C         137.1874  144.5127  154.3483 C.ar    1  UNL1        0.0209
      7 C         138.2741  145.1143  155.1893 C.ar    1  UNL1        0.1006
      8 N         138.7668  144.3912  156.4076 N.ar    1  UNL1       -0.2249
      9 C         138.1729  143.0665  156.7850 C.ar    1  UNL1        0.1678
     10 N         138.6656  142.3434  158.0033 N.ar    1  UNL1       -0.1944
     11 O         140.8252  136.8552  163.1065 O.2     1  UNL1       -0.2734
     12 C         140.0425  138.1263  163.2540 C.2     1  UNL1        0.2400
     13 N         139.5498  138.8494  162.0357 N.am    1  UNL1       -0.2750
     14 C         139.8397  138.3014  160.6698 C.3     1  UNL1        0.1150
     15 C         139.3471  139.0245  159.4515 C.3     1  UNL1        0.1151
     16 N         138.5644  140.2956  159.5990 N.pl3   1  UNL1       -0.2746
     17 C         138.2745  140.8436  160.9649 C.3     1  UNL1        0.1151
     18 C         138.7672  140.1205  162.1832 C.3     1  UNL1        0.1150
     19 C         139.7526  138.6742  164.6199 C.3     1  UNL1        0.1317
     20 C         138.4987  138.2724  165.3386 C.3     1  UNL1        0.0251
     21 C         138.2087  138.8204  166.7045 C.3     1  UNL1        0.0033
     22 C         139.1727  139.7702  167.3517 C.3     1  UNL1        0.0171
     23 C         140.4265  140.1720  166.6330 C.3     1  UNL1        0.0689
     24 N         140.7164  139.6240  165.2672 N.3     1  UNL1       -0.2913
     25 H         141.6116  139.1388  165.3285 H       1  UNL1        0.1236
     26 N         135.4056  140.5386  155.4805 N.pl3   1  UNL1       -0.3143
     27 H         135.6105  139.7933  154.8708 H       1  UNL1        0.1485
     28 C         134.0066  141.0726  155.5684 C.3     1  UNL1        0.1162
     29 C         132.9622  140.3170  156.3353 C.ar    1  UNL1        0.0080
     30 C         133.3699  139.2382  157.2946 C.ar    1  UNL1       -0.0009
     31 C         132.3255  138.4826  158.0615 C.ar    1  UNL1        0.0112
     32 C         130.8733  138.8056  157.8690 C.ar    1  UNL1        0.0585
     33 CL        129.8289  138.0499  158.6359 Cl      1  UNL1       -0.0822
     34 C         130.4657  139.8843  156.9097 C.ar    1  UNL1        0.0225
     35 C         131.5101  140.6399  156.1429 C.ar    1  UNL1        0.0561
     36 CL        131.1024  141.7187  155.1835 Cl      1  UNL1       -0.0825
@<TRIPOS>BOND
     1    11    12    2
     2    19    12    1
     3    19    20    1
     4    20    21    1
     5    21    22    1
     6    22    23    1
     7    23    24    1
     8    12    13   am
     9    13    14    1
    10    14    15    1
    11    15    16    1
    12    16     1    1
    13     1     2   ar
    14     2     3   ar
    15     3    26    1
    16    26    28    1
    17    28    29    1
    18    29    30   ar
    19    30    31   ar
    20    31    32   ar
    21    32    33    1
    22    32    34   ar
    23    34    35   ar
    24    35    36    1
    25     3     4   ar
    26     4     5   ar
    27     5     6   ar
    28     6     7   ar
    29     7     8   ar
    30     8     9   ar
    31     9    10   ar
    32    16    17    1
    33    17    18    1
    34    24    19    1
    35    18    13    1
    36    10     1   ar
    37    35    29   ar
    38     9     4   ar
    39    24    25    1
    40    26    27    1
@<TRIPOS>MOLECULE
*****
 36 40 0 0 0
SMALL
GASTEIGER

@<TRIPOS>ATOM
      1 C         141.6663  144.3843  160.4784 C.ar    1  UNL1        0.2227
      2 N         141.0010  144.9575  161.6944 N.ar    1  UNL1       -0.1988
      3 C         141.5773  144.7018  163.0554 C.ar    1  UNL1        0.1345
      4 C         142.8190  143.8728  163.2005 C.ar    1  UNL1        0.0674
      5 C         143.3953  143.6171  164.5615 C.ar    1  UNL1        0.0074
      6 C         144.6369  142.7881  164.7065 C.ar    1  UNL1        0.0209
      7 C         145.3023  142.2149  163.4905 C.ar    1  UNL1        0.1006
      8 N         144.7260  142.4706  162.1295 N.ar    1  UNL1       -0.2249
      9 C         143.4843  143.2995  161.9845 C.ar    1  UNL1        0.1678
     10 N         142.9080  143.5553  160.6234 N.ar    1  UNL1       -0.1944
     11 O         138.3105  144.4911  154.4803 O.2     1  UNL1       -0.2734
     12 C         139.3610  145.4074  155.0342 C.2     1  UNL1        0.2400
     13 N         139.9374  145.1516  156.3953 N.am    1  UNL1       -0.2750
     14 C         139.4632  143.9795  157.2024 C.3     1  UNL1        0.1150
     15 C         140.0395  143.7237  158.5634 C.3     1  UNL1        0.1151
     16 N         141.0900  144.6400  159.1173 N.pl3   1  UNL1       -0.2746
     17 C         141.5641  145.8121  158.3102 C.3     1  UNL1        0.1151
     18 C         140.9878  146.0679  156.9492 C.3     1  UNL1        0.1150
     19 C         139.8352  146.5794  154.2271 C.3     1  UNL1        0.1317
     20 C         139.3784  147.9648  154.5767 C.3     1  UNL1        0.0251
     21 C         139.8526  149.1369  153.7696 C.3     1  UNL1        0.0033
     22 C         140.7835  148.9236  152.6129 C.3     1  UNL1        0.0171
     23 C         141.2403  147.5383  152.2634 C.3     1  UNL1        0.0689
     24 N         140.7661  146.3662  153.0705 N.3     1  UNL1       -0.2913
     25 H         141.5984  145.9090  153.4428 H       1  UNL1        0.1236
     26 N         140.9119  145.2750  164.2715 N.pl3   1  UNL1       -0.3143
     27 H         141.3812  145.9446  164.8198 H       1  UNL1        0.1485
     28 C         139.5316  144.8281  164.6520 C.3     1  UNL1        0.1162
     29 C         139.2498  143.3720  164.8763 C.ar    1  UNL1        0.0080
     30 C         139.9045  142.6481  166.0154 C.ar    1  UNL1       -0.0009
     31 C         139.6227  141.1920  166.2397 C.ar    1  UNL1        0.0112
     32 C         138.6864  140.4597  165.3247 C.ar    1  UNL1        0.0585
     33 CL        138.4046  139.0035  165.5490 Cl      1  UNL1       -0.0822
     34 C         138.0318  141.1835  164.1857 C.ar    1  UNL1        0.0225
     35 C         138.3135  142.6396  163.9614 C.ar    1  UNL1        0.0561
     36 CL        137.6589  143.3635  162.8223 Cl      1  UNL1       -0.0825
@<TRIPOS>BOND
     1    11    12    2
     2    19    12    1
     3    19    20    1
     4    20    21    1
     5    21    22    1
     6    22    23    1
     7    23    24    1
     8    12    13   am
     9    13    14    1
    10    14    15    1
    11    15    16    1
    12    16     1    1
    13     1     2   ar
    14     2     3   ar
    15     3    26    1
    16    26    28    1
    17    28    29    1
    18    29    30   ar
    19    30    31   ar
    20    31    32   ar
    21    32    33    1
    22    32    34   ar
    23    34    35   ar
    24    35    36    1
    25     3     4   ar
    26     4     5   ar
    27     5     6   ar
    28     6     7   ar
    29     7     8   ar
    30     8     9   ar
    31     9    10   ar
    32    16    17    1
    33    17    18    1
    34    24    19    1
    35    18    13    1
    36    10     1   ar
    37    35    29   ar
    38     9     4   ar
    39    24    25    1
    40    26    27    1
@<TRIPOS>MOLECULE
*****
 36 40 0 0 0
SMALL
GASTEIGER

@<TRIPOS>ATOM
      1 C         141.1847  144.7094  160.3612 C.ar    1  UNL1        0.2227
      2 N         142.2096  144.8966  161.4403 N.ar    1  UNL1       -0.1988
      3 C         141.7947  144.8696  162.8815 C.ar    1  UNL1        0.1345
      4 C         140.3548  144.6555  163.2436 C.ar    1  UNL1        0.0674
      5 C         139.9399  144.6286  164.6848 C.ar    1  UNL1        0.0074
      6 C         138.5001  144.4145  165.0468 C.ar    1  UNL1        0.0209
      7 C         137.4752  144.2273  163.9677 C.ar    1  UNL1        0.1006
      8 N         137.8901  144.2542  162.5265 N.ar    1  UNL1       -0.2249
      9 C         139.3299  144.4683  162.1644 C.ar    1  UNL1        0.1678
     10 N         139.7449  144.4953  160.7232 N.ar    1  UNL1       -0.1944
     11 O         142.2279  145.8102  153.6567 O.2     1  UNL1       -0.2734
     12 C         142.8447  144.8170  154.5963 C.2     1  UNL1        0.2400
     13 N         142.4297  144.7901  156.0376 N.am    1  UNL1       -0.2750
     14 C         141.3979  145.7564  156.5391 C.3     1  UNL1        0.1150
     15 C         140.9829  145.7295  157.9803 C.3     1  UNL1        0.1151
     16 N         141.5997  144.7363  158.9199 N.pl3   1  UNL1       -0.2746
     17 C         142.6315  143.7699  158.4184 C.3     1  UNL1        0.1151
     18 C         143.0465  143.7968  156.9772 C.3     1  UNL1        0.1150
     19 C         143.8765  143.8507  154.0948 C.3     1  UNL1        0.1317
     20 C         143.4504  142.5495  153.4821 C.3     1  UNL1        0.0251
     21 C         144.4822  141.5831  152.9805 C.3     1  UNL1        0.0033
     22 C         145.9401  141.9180  153.0918 C.3     1  UNL1        0.0171
     23 C         146.3662  143.2191  153.7045 C.3     1  UNL1        0.0689
     24 N         145.3344  144.1854  154.2060 N.3     1  UNL1       -0.2913
     25 H         145.4759  145.0578  153.6968 H       1  UNL1        0.1236
     26 N         142.8195  145.0568  163.9607 N.pl3   1  UNL1       -0.3143
     27 H         142.7256  145.7942  164.6062 H       1  UNL1        0.1485
     28 C         143.9875  144.1206  164.0563 C.3     1  UNL1        0.1162
     29 C         143.7881  142.7214  164.5589 C.ar    1  UNL1        0.0080
     30 C         142.7507  142.4412  165.6055 C.ar    1  UNL1       -0.0009
     31 C         142.5513  141.0420  166.1081 C.ar    1  UNL1        0.0112
     32 C         143.3891  139.9231  165.5639 C.ar    1  UNL1        0.0585
     33 CL        143.1897  138.5239  166.0665 Cl      1  UNL1       -0.0822
     34 C         144.4264  140.2034  164.5173 C.ar    1  UNL1        0.0225
     35 C         144.6259  141.6025  164.0148 C.ar    1  UNL1        0.0561
     36 CL        145.6632  141.8827  162.9681 Cl      1  UNL1       -0.0825
@<TRIPOS>BOND
     1    11    12    2
     2    19    12    1
     3    19    20    1
     4    20    21    1
     5    21    22    1
     6    22    23    1
     7    23    24    1
     8    12    13   am
     9    13    14    1
    10    14    15    1
    11    15    16    1
    12    16     1    1
    13     1     2   ar
    14     2     3   ar
    15     3    26    1
    16    26    28    1
    17    28    29    1
    18    29    30   ar
    19    30    31   ar
    20    31    32   ar
    21    32    33    1
    22    32    34   ar
    23    34    35   ar
    24    35    36    1
    25     3     4   ar
    26     4     5   ar
    27     5     6   ar
    28     6     7   ar
    29     7     8   ar
    30     8     9   ar
    31     9    10   ar
    32    16    17    1
    33    17    18    1
    34    24    19    1
    35    18    13    1
    36    10     1   ar
    37    35    29   ar
    38     9     4   ar
    39    24    25    1
    40    26    27    1
@<TRIPOS>MOLECULE
*****
 36 40 0 0 0
SMALL
GASTEIGER

@<TRIPOS>ATOM
      1 C         141.7902  141.8340  160.0391 C.ar    1  UNL1        0.2227
      2 N         142.7298  142.8311  160.6497 N.ar    1  UNL1       -0.1988
      3 C         142.2183  143.8347  161.6403 C.ar    1  UNL1        0.1345
      4 C         140.7672  143.8411  162.0203 C.ar    1  UNL1        0.0674
      5 C         140.2557  144.8447  163.0108 C.ar    1  UNL1        0.0074
      6 C         138.8047  144.8511  163.3908 C.ar    1  UNL1        0.0209
      7 C         137.8651  143.8539  162.7802 C.ar    1  UNL1        0.1006
      8 N         138.3766  142.8503  161.7896 N.ar    1  UNL1       -0.2249
      9 C         139.8276  142.8440  161.4097 C.ar    1  UNL1        0.1678
     10 N         140.3391  141.8404  160.4191 N.ar    1  UNL1       -0.1944
     11 O         145.0927  138.0991  155.3068 O.2     1  UNL1       -0.2734
     12 C         143.8362  137.8196  156.0769 C.2     1  UNL1        0.2400
     13 N         143.3246  138.8232  157.0675 N.am    1  UNL1       -0.2750
     14 C         144.0697  140.1063  157.2880 C.3     1  UNL1        0.1150
     15 C         143.5582  141.1099  158.2785 C.3     1  UNL1        0.1151
     16 N         142.3017  140.8304  159.0485 N.pl3   1  UNL1       -0.2746
     17 C         141.5567  139.5473  158.8281 C.3     1  UNL1        0.1151
     18 C         142.0681  138.5437  157.8375 C.3     1  UNL1        0.1150
     19 C         143.0911  136.5365  155.8564 C.3     1  UNL1        0.1317
     20 C         142.0219  136.4609  154.8070 C.3     1  UNL1        0.0251
     21 C         141.2769  135.1778  154.5866 C.3     1  UNL1        0.0033
     22 C         141.6011  133.9704  155.4154 C.3     1  UNL1        0.0171
     23 C         142.6703  134.0460  156.4647 C.3     1  UNL1        0.0689
     24 N         143.4153  135.3291  156.6852 N.3     1  UNL1       -0.2913
     25 H         144.4034  135.1254  156.5349 H       1  UNL1        0.1236
     26 N         143.1579  144.8319  162.2509 N.pl3   1  UNL1       -0.3143
     27 H         143.2661  145.7208  161.8419 H       1  UNL1        0.1485
     28 C         143.9326  144.4747  163.4846 C.3     1  UNL1        0.1162
     29 C         143.6941  143.1595  164.1654 C.ar    1  UNL1        0.0080
     30 C         142.6374  143.0435  165.2237 C.ar    1  UNL1       -0.0009
     31 C         142.3989  141.7283  165.9045 C.ar    1  UNL1        0.0112
     32 C         143.2172  140.5291  165.5270 C.ar    1  UNL1        0.0585
     33 CL        142.9788  139.2140  166.2077 Cl      1  UNL1       -0.0822
     34 C         144.2739  140.6452  164.4687 C.ar    1  UNL1        0.0225
     35 C         144.5123  141.9603  163.7879 C.ar    1  UNL1        0.0561
     36 CL        145.5690  142.0763  162.7296 Cl      1  UNL1       -0.0825
@<TRIPOS>BOND
     1    11    12    2
     2    19    12    1
     3    19    20    1
     4    20    21    1
     5    21    22    1
     6    22    23    1
     7    23    24    1
     8    12    13   am
     9    13    14    1
    10    14    15    1
    11    15    16    1
    12    16     1    1
    13     1     2   ar
    14     2     3   ar
    15     3    26    1
    16    26    28    1
    17    28    29    1
    18    29    30   ar
    19    30    31   ar
    20    31    32   ar
    21    32    33    1
    22    32    34   ar
    23    34    35   ar
    24    35    36    1
    25     3     4   ar
    26     4     5   ar
    27     5     6   ar
    28     6     7   ar
    29     7     8   ar
    30     8     9   ar
    31     9    10   ar
    32    16    17    1
    33    17    18    1
    34    24    19    1
    35    18    13    1
    36    10     1   ar
    37    35    29   ar
    38     9     4   ar
    39    24    25    1
    40    26    27    1
@<TRIPOS>MOLECULE
*****
 36 40 0 0 0
SMALL
GASTEIGER

@<TRIPOS>ATOM
      1 C         142.2617  142.4528  160.9840 C.ar    1  UNL1        0.2227
      2 N         142.9493  142.5259  162.3151 N.ar    1  UNL1       -0.1988
      3 C         142.2165  143.0610  163.5095 C.ar    1  UNL1        0.1345
      4 C         140.7959  143.5230  163.3728 C.ar    1  UNL1        0.0674
      5 C         140.0630  144.0580  164.5672 C.ar    1  UNL1        0.0074
      6 C         138.6425  144.5200  164.4305 C.ar    1  UNL1        0.0209
      7 C         137.9549  144.4468  163.0994 C.ar    1  UNL1        0.1006
      8 N         138.6878  143.9118  161.9050 N.ar    1  UNL1       -0.2249
      9 C         140.1083  143.4498  162.0417 C.ar    1  UNL1        0.1678
     10 N         140.8412  142.9147  160.8473 N.ar    1  UNL1       -0.1944
     11 O         145.0217  138.8785  155.8017 O.2     1  UNL1       -0.2734
     12 C         145.1934  140.3126  156.2065 C.2     1  UNL1        0.2400
     13 N         144.4605  140.8477  157.4009 N.am    1  UNL1       -0.2750
     14 C         143.5559  139.9486  158.1905 C.3     1  UNL1        0.1150
     15 C         142.8230  140.4836  159.3849 C.3     1  UNL1        0.1151
     16 N         142.9946  141.9177  159.7896 N.pl3   1  UNL1       -0.2746
     17 C         143.8992  142.8168  159.0000 C.3     1  UNL1        0.1151
     18 C         144.6321  142.2817  157.8057 C.3     1  UNL1        0.1150
     19 C         146.0980  141.2116  155.4169 C.3     1  UNL1        0.1317
     20 C         145.5597  141.9718  154.2411 C.3     1  UNL1        0.0251
     21 C         146.4643  142.8709  153.4515 C.3     1  UNL1        0.0033
     22 C         147.9071  143.0097  153.8377 C.3     1  UNL1        0.0171
     23 C         148.4453  142.2495  155.0135 C.3     1  UNL1        0.0689
     24 N         147.5407  141.3505  155.8031 N.3     1  UNL1       -0.2913
     25 H         147.5567  141.6882  156.7654 H       1  UNL1        0.1236
     26 N         142.9041  143.1341  164.8406 N.pl3   1  UNL1       -0.3143
     27 H         143.2876  143.9863  165.1504 H       1  UNL1        0.1485
     28 C         143.0075  141.9089  165.6997 C.3     1  UNL1        0.1162
     29 C         141.7736  141.1290  166.0454 C.ar    1  UNL1        0.0080
     30 C         140.9232  141.5474  167.2080 C.ar    1  UNL1       -0.0009
     31 C         139.6893  140.7675  167.5537 C.ar    1  UNL1        0.0112
     32 C         139.3060  139.5693  166.7367 C.ar    1  UNL1        0.0585
     33 CL        138.0722  138.7894  167.0824 Cl      1  UNL1       -0.0822
     34 C         140.1565  139.1510  165.5741 C.ar    1  UNL1        0.0225
     35 C         141.3903  139.9308  165.2285 C.ar    1  UNL1        0.0561
     36 CL        142.2408  139.5125  164.0658 Cl      1  UNL1       -0.0825
@<TRIPOS>BOND
     1    11    12    2
     2    19    12    1
     3    19    20    1
     4    20    21    1
     5    21    22    1
     6    22    23    1
     7    23    24    1
     8    12    13   am
     9    13    14    1
    10    14    15    1
    11    15    16    1
    12    16     1    1
    13     1     2   ar
    14     2     3   ar
    15     3    26    1
    16    26    28    1
    17    28    29    1
    18    29    30   ar
    19    30    31   ar
    20    31    32   ar
    21    32    33    1
    22    32    34   ar
    23    34    35   ar
    24    35    36    1
    25     3     4   ar
    26     4     5   ar
    27     5     6   ar
    28     6     7   ar
    29     7     8   ar
    30     8     9   ar
    31     9    10   ar
    32    16    17    1
    33    17    18    1
    34    24    19    1
    35    18    13    1
    36    10     1   ar
    37    35    29   ar
    38     9     4   ar
    39    24    25    1
    40    26    27    1
@<TRIPOS>MOLECULE
*****
 36 40 0 0 0
SMALL
GASTEIGER

@<TRIPOS>ATOM
      1 C         142.7358  141.1932  159.4377 C.ar    1  UNL1        0.2227
      2 N         143.9819  141.4630  160.2280 N.ar    1  UNL1       -0.1988
      3 C         143.9794  142.5163  161.2959 C.ar    1  UNL1        0.1345
      4 C         142.7308  143.2999  161.5736 C.ar    1  UNL1        0.0674
      5 C         142.7283  144.3532  162.6415 C.ar    1  UNL1        0.0074
      6 C         141.4797  145.1367  162.9191 C.ar    1  UNL1        0.0209
      7 C         140.2336  144.8669  162.1289 C.ar    1  UNL1        0.1006
      8 N         140.2361  143.8136  161.0610 N.ar    1  UNL1       -0.2249
      9 C         141.4847  143.0301  160.7833 C.ar    1  UNL1        0.1678
     10 N         141.4872  141.9767  159.7154 N.ar    1  UNL1       -0.1944
     11 O         142.7140  137.3776  153.7202 O.2     1  UNL1       -0.2734
     12 C         142.7460  136.9797  155.1661 C.2     1  UNL1        0.2400
     13 N         142.7434  138.0331  156.2340 N.am    1  UNL1       -0.2750
     14 C         142.7089  139.4843  155.8560 C.3     1  UNL1        0.1150
     15 C         142.7064  140.5376  156.9239 C.3     1  UNL1        0.1151
     16 N         142.7383  140.1398  158.3698 N.pl3   1  UNL1       -0.2746
     17 C         142.7728  138.6887  158.7478 C.3     1  UNL1        0.1151
     18 C         142.7754  137.6353  157.6799 C.3     1  UNL1        0.1150
     19 C         142.7805  135.5286  155.5441 C.3     1  UNL1        0.1317
     20 C         141.5851  134.6587  155.2900 C.3     1  UNL1        0.0251
     21 C         141.6196  133.2075  155.6680 C.3     1  UNL1        0.0033
     22 C         142.8495  132.6262  156.3001 C.3     1  UNL1        0.0171
     23 C         144.0448  133.4961  156.5542 C.3     1  UNL1        0.0689
     24 N         144.0103  134.9472  156.1762 N.3     1  UNL1       -0.2913
     25 H         144.7777  135.0993  155.5217 H       1  UNL1        0.1236
     26 N         145.2255  142.7861  162.0862 N.pl3   1  UNL1       -0.3143
     27 H         145.7790  143.5734  161.8789 H       1  UNL1        0.1485
     28 C         145.6281  141.8564  163.1923 C.3     1  UNL1        0.1162
     29 C         144.5928  141.3223  164.1372 C.ar    1  UNL1        0.0080
     30 C         144.0675  139.9279  163.9642 C.ar    1  UNL1       -0.0009
     31 C         143.0323  139.3938  164.9091 C.ar    1  UNL1        0.0112
     32 C         142.5224  140.2540  166.0272 C.ar    1  UNL1        0.0585
     33 CL        141.4871  139.7199  166.9722 Cl      1  UNL1       -0.0822
     34 C         143.0477  141.6483  166.2003 C.ar    1  UNL1        0.0225
     35 C         144.0829  142.1824  165.2553 C.ar    1  UNL1        0.0561
     36 CL        144.6082  143.5768  165.4284 Cl      1  UNL1       -0.0825
@<TRIPOS>BOND
     1    11    12    2
     2    19    12    1
     3    19    20    1
     4    20    21    1
     5    21    22    1
     6    22    23    1
     7    23    24    1
     8    12    13   am
     9    13    14    1
    10    14    15    1
    11    15    16    1
    12    16     1    1
    13     1     2   ar
    14     2     3   ar
    15     3    26    1
    16    26    28    1
    17    28    29    1
    18    29    30   ar
    19    30    31   ar
    20    31    32   ar
    21    32    33    1
    22    32    34   ar
    23    34    35   ar
    24    35    36    1
    25     3     4   ar
    26     4     5   ar
    27     5     6   ar
    28     6     7   ar
    29     7     8   ar
    30     8     9   ar
    31     9    10   ar
    32    16    17    1
    33    17    18    1
    34    24    19    1
    35    18    13    1
    36    10     1   ar
    37    35    29   ar
    38     9     4   ar
    39    24    25    1
    40    26    27    1
