@<TRIPOS>MOLECULE
*****
 24 26 0 0 0
SMALL
GASTEIGER

@<TRIPOS>ATOM
      1 C         141.3151  137.2842  163.0716 C.3     1  UNL1        0.0523
      2 C         140.2562  138.1536  163.6823 C.ar    1  UNL1        0.0650
      3 C         140.1433  138.2622  165.1740 C.ar    1  UNL1        0.0492
      4 C         139.0844  139.1316  165.7847 C.ar    1  UNL1        0.1362
      5 N         138.1384  139.8924  164.9036 N.ar    1  UNL1       -0.1988
      6 C         138.2514  139.7838  163.4118 C.ar    1  UNL1        0.2180
      7 N         139.3103  138.9144  162.8012 N.ar    1  UNL1       -0.2181
      8 N         138.9714  139.2402  167.2765 N.pl3   1  UNL1       -0.2978
      9 H         138.5552  138.5127  167.7930 H       1  UNL1        0.1536
     10 C         139.4928  140.4572  167.9815 C.ar    1  UNL1        0.0494
     11 C         140.1829  141.5373  167.2023 C.ar    1  UNL1        0.0146
     12 C         140.7043  142.7544  167.9073 C.ar    1  UNL1        0.0013
     13 C         140.5354  142.8913  169.3915 C.ar    1  UNL1        0.0001
     14 C         139.8453  141.8113  170.1706 C.ar    1  UNL1        0.0013
     15 C         139.3240  140.5942  169.4657 C.ar    1  UNL1        0.0146
     16 N         137.3054  140.5446  162.5307 N.pl3   1  UNL1       -0.2978
     17 H         136.4478  140.1408  162.2648 H       1  UNL1        0.1500
     18 C         137.6661  141.9205  162.0546 C.3     1  UNL1        0.1359
     19 C         138.4599  142.8360  162.9389 C.ar    1  UNL1        0.0788
     20 C         137.8014  143.5065  164.1080 C.ar    1  UNL1        0.0165
     21 C         138.5951  144.4220  164.9922 C.ar    1  UNL1        0.0029
     22 C         140.0473  144.6669  164.7073 C.ar    1  UNL1        0.0207
     23 C         140.7058  143.9965  163.5382 C.ar    1  UNL1        0.0985
     24 N         139.9120  143.0810  162.6540 N.ar    1  UNL1       -0.2464
@<TRIPOS>BOND
     1     1     2    1
     2     2     3   ar
     3     3     4   ar
     4     4     8    1
     5     8    10    1
     6    10    11   ar
     7    11    12   ar
     8    12    13   ar
     9    13    14   ar
    10    14    15   ar
    11     4     5   ar
    12     5     6   ar
    13     6    16    1
    14    16    18    1
    15    18    19    1
    16    19    20   ar
    17    20    21   ar
    18    21    22   ar
    19    22    23   ar
    20    23    24   ar
    21     6     7   ar
    22     7     2   ar
    23    15    10   ar
    24    24    19   ar
    25     8     9    1
    26    16    17    1
@<TRIPOS>MOLECULE
*****
 24 26 0 0 0
SMALL
GASTEIGER

@<TRIPOS>ATOM
      1 C         138.4115  145.2359  166.0061 C.3     1  UNL1        0.0523
      2 C         138.4198  144.4916  164.7038 C.ar    1  UNL1        0.0650
      3 C         137.7778  143.1392  164.6088 C.ar    1  UNL1        0.0492
      4 C         137.7861  142.3949  163.3065 C.ar    1  UNL1        0.1362
      5 N         138.4363  143.0029  162.0993 N.ar    1  UNL1       -0.1988
      6 C         139.0782  144.3552  162.1943 C.ar    1  UNL1        0.2180
      7 N         139.0699  145.0996  163.4966 N.ar    1  UNL1       -0.2181
      8 N         137.1442  141.0425  163.2116 N.pl3   1  UNL1       -0.2978
      9 H         136.2368  140.9533  162.8402 H       1  UNL1        0.1536
     10 C         137.8847  139.8260  163.6825 C.ar    1  UNL1        0.0494
     11 C         138.1530  139.6309  165.1454 C.ar    1  UNL1        0.0146
     12 C         138.8936  138.4144  165.6164 C.ar    1  UNL1        0.0013
     13 C         139.3659  137.3931  164.6244 C.ar    1  UNL1        0.0001
     14 C         139.0977  137.5883  163.1616 C.ar    1  UNL1        0.0013
     15 C         138.3571  138.8048  162.6906 C.ar    1  UNL1        0.0146
     16 N         139.7285  144.9633  160.9870 N.pl3   1  UNL1       -0.2978
     17 H         139.1736  145.3147  160.2535 H       1  UNL1        0.1500
     18 C         141.2240  145.0360  160.8972 C.3     1  UNL1        0.1359
     19 C         142.0715  144.3393  161.9202 C.ar    1  UNL1        0.0788
     20 C         142.6211  145.1057  163.0866 C.ar    1  UNL1        0.0165
     21 C         143.4686  144.4090  164.1094 C.ar    1  UNL1        0.0029
     22 C         143.7665  142.9459  163.9659 C.ar    1  UNL1        0.0207
     23 C         143.2169  142.1795  162.7995 C.ar    1  UNL1        0.0985
     24 N         142.3694  142.8762  161.7766 N.ar    1  UNL1       -0.2464
@<TRIPOS>BOND
     1     1     2    1
     2     2     3   ar
     3     3     4   ar
     4     4     8    1
     5     8    10    1
     6    10    11   ar
     7    11    12   ar
     8    12    13   ar
     9    13    14   ar
    10    14    15   ar
    11     4     5   ar
    12     5     6   ar
    13     6    16    1
    14    16    18    1
    15    18    19    1
    16    19    20   ar
    17    20    21   ar
    18    21    22   ar
    19    22    23   ar
    20    23    24   ar
    21     6     7   ar
    22     7     2   ar
    23    15    10   ar
    24    24    19   ar
    25     8     9    1
    26    16    17    1
@<TRIPOS>MOLECULE
*****
 24 26 0 0 0
SMALL
GASTEIGER

@<TRIPOS>ATOM
      1 C         144.0366  144.4226  163.3613 C.3     1  UNL1        0.0523
      2 C         142.7901  143.9470  164.0468 C.ar    1  UNL1        0.0650
      3 C         142.8131  142.6816  164.8519 C.ar    1  UNL1        0.0492
      4 C         141.5666  142.2060  165.5374 C.ar    1  UNL1        0.1362
      5 N         140.2970  142.9958  165.4178 N.ar    1  UNL1       -0.1988
      6 C         140.2740  144.2612  164.6128 C.ar    1  UNL1        0.2180
      7 N         141.5205  144.7368  163.9273 N.ar    1  UNL1       -0.2181
      8 N         141.5896  140.9405  166.3425 N.pl3   1  UNL1       -0.2978
      9 H         142.2958  140.7965  167.0132 H       1  UNL1        0.1536
     10 C         140.5367  139.8944  166.1257 C.ar    1  UNL1        0.0494
     11 C         139.2787  139.9158  166.9425 C.ar    1  UNL1        0.0146
     12 C         138.2258  138.8697  166.7257 C.ar    1  UNL1        0.0013
     13 C         138.4309  137.8022  165.6921 C.ar    1  UNL1        0.0001
     14 C         139.6888  137.7807  164.8753 C.ar    1  UNL1        0.0013
     15 C         140.7417  138.8268  165.0921 C.ar    1  UNL1        0.0146
     16 N         139.0043  145.0510  164.4932 N.pl3   1  UNL1       -0.2978
     17 H         138.9945  146.0062  164.7317 H       1  UNL1        0.1500
     18 C         137.7498  144.3857  164.0102 C.3     1  UNL1        0.1359
     19 C         137.8342  143.1955  163.1011 C.ar    1  UNL1        0.0788
     20 C         137.5753  141.8200  163.6403 C.ar    1  UNL1        0.0165
     21 C         137.6598  140.6299  162.7312 C.ar    1  UNL1        0.0029
     22 C         138.0031  140.8153  161.2829 C.ar    1  UNL1        0.0207
     23 C         138.2620  142.1908  160.7436 C.ar    1  UNL1        0.0985
     24 N         138.1776  143.3809  161.6527 N.ar    1  UNL1       -0.2464
@<TRIPOS>BOND
     1     1     2    1
     2     2     3   ar
     3     3     4   ar
     4     4     8    1
     5     8    10    1
     6    10    11   ar
     7    11    12   ar
     8    12    13   ar
     9    13    14   ar
    10    14    15   ar
    11     4     5   ar
    12     5     6   ar
    13     6    16    1
    14    16    18    1
    15    18    19    1
    16    19    20   ar
    17    20    21   ar
    18    21    22   ar
    19    22    23   ar
    20    23    24   ar
    21     6     7   ar
    22     7     2   ar
    23    15    10   ar
    24    24    19   ar
    25     8     9    1
    26    16    17    1
@<TRIPOS>MOLECULE
*****
 24 26 0 0 0
SMALL
GASTEIGER

@<TRIPOS>ATOM
      1 C         144.5793  142.6997  160.8245 C.3     1  UNL1        0.0523
      2 C         143.8065  143.2650  161.9792 C.ar    1  UNL1        0.0650
      3 C         143.9842  142.6910  163.3535 C.ar    1  UNL1        0.0492
      4 C         143.2115  143.2563  164.5082 C.ar    1  UNL1        0.1362
      5 N         142.2610  144.3957  164.2885 N.ar    1  UNL1       -0.1988
      6 C         142.0833  144.9698  162.9142 C.ar    1  UNL1        0.2180
      7 N         142.8560  144.4044  161.7595 N.ar    1  UNL1       -0.2181
      8 N         143.3893  142.6822  165.8826 N.pl3   1  UNL1       -0.2978
      9 H         144.2070  142.8766  166.3952 H       1  UNL1        0.1536
     10 C         142.3212  141.8121  166.4758 C.ar    1  UNL1        0.0494
     11 C         140.8800  142.0604  166.1416 C.ar    1  UNL1        0.0146
     12 C         139.8119  141.1902  166.7349 C.ar    1  UNL1        0.0013
     13 C         140.1849  140.0717  167.6623 C.ar    1  UNL1        0.0001
     14 C         141.6260  139.8235  167.9964 C.ar    1  UNL1        0.0013
     15 C         142.6941  140.6937  167.4031 C.ar    1  UNL1        0.0146
     16 N         141.1327  146.1092  162.6944 N.pl3   1  UNL1       -0.2978
     17 H         141.4042  147.0277  162.9224 H       1  UNL1        0.1500
     18 C         139.7686  145.8493  162.1273 C.3     1  UNL1        0.1359
     19 C         138.9912  144.6437  162.5660 C.ar    1  UNL1        0.0788
     20 C         138.5690  144.5041  163.9985 C.ar    1  UNL1        0.0165
     21 C         137.7916  143.2987  164.4372 C.ar    1  UNL1        0.0029
     22 C         137.4365  142.2328  163.4433 C.ar    1  UNL1        0.0207
     23 C         137.8587  142.3724  162.0108 C.ar    1  UNL1        0.0985
     24 N         138.6361  143.5779  161.5721 N.ar    1  UNL1       -0.2464
@<TRIPOS>BOND
     1     1     2    1
     2     2     3   ar
     3     3     4   ar
     4     4     8    1
     5     8    10    1
     6    10    11   ar
     7    11    12   ar
     8    12    13   ar
     9    13    14   ar
    10    14    15   ar
    11     4     5   ar
    12     5     6   ar
    13     6    16    1
    14    16    18    1
    15    18    19    1
    16    19    20   ar
    17    20    21   ar
    18    21    22   ar
    19    22    23   ar
    20    23    24   ar
    21     6     7   ar
    22     7     2   ar
    23    15    10   ar
    24    24    19   ar
    25     8     9    1
    26    16    17    1
@<TRIPOS>MOLECULE
*****
 24 26 0 0 0
SMALL
GASTEIGER

@<TRIPOS>ATOM
      1 C         137.5235  139.9138  160.3709 C.3     1  UNL1        0.0523
      2 C         137.7113  140.4848  161.7451 C.ar    1  UNL1        0.0650
      3 C         137.9600  139.5720  162.9091 C.ar    1  UNL1        0.0492
      4 C         138.1478  140.1431  164.2833 C.ar    1  UNL1        0.1362
      5 N         138.0868  141.6270  164.4937 N.ar    1  UNL1       -0.1988
      6 C         137.8381  142.5398  163.3297 C.ar    1  UNL1        0.2180
      7 N         137.6504  141.9687  161.9554 N.ar    1  UNL1       -0.2181
      8 N         138.3965  139.2302  165.4473 N.pl3   1  UNL1       -0.2978
      9 H         137.7954  138.4682  165.6125 H       1  UNL1        0.1536
     10 C         139.5611  139.4783  166.3596 C.ar    1  UNL1        0.0494
     11 C         140.9620  139.3646  165.8353 C.ar    1  UNL1        0.0146
     12 C         142.1265  139.6128  166.7476 C.ar    1  UNL1        0.0013
     13 C         141.8903  139.9745  168.1841 C.ar    1  UNL1        0.0001
     14 C         140.4895  140.0881  168.7082 C.ar    1  UNL1        0.0013
     15 C         139.3249  139.8400  167.7960 C.ar    1  UNL1        0.0146
     16 N         137.7772  144.0238  163.5400 N.pl3   1  UNL1       -0.2978
     17 H         137.1241  144.5653  163.0405 H       1  UNL1        0.1500
     18 C         138.7113  144.6827  164.5111 C.3     1  UNL1        0.1359
     19 C         140.1854  144.4163  164.4324 C.ar    1  UNL1        0.0788
     20 C         140.8000  143.3427  165.2807 C.ar    1  UNL1        0.0165
     21 C         142.2740  143.0764  165.2019 C.ar    1  UNL1        0.0029
     22 C         143.1335  143.8837  164.2748 C.ar    1  UNL1        0.0207
     23 C         142.5190  144.9572  163.4264 C.ar    1  UNL1        0.0985
     24 N         141.0449  145.2235  163.5052 N.ar    1  UNL1       -0.2464
@<TRIPOS>BOND
     1     1     2    1
     2     2     3   ar
     3     3     4   ar
     4     4     8    1
     5     8    10    1
     6    10    11   ar
     7    11    12   ar
     8    12    13   ar
     9    13    14   ar
    10    14    15   ar
    11     4     5   ar
    12     5     6   ar
    13     6    16    1
    14    16    18    1
    15    18    19    1
    16    19    20   ar
    17    20    21   ar
    18    21    22   ar
    19    22    23   ar
    20    23    24   ar
    21     6     7   ar
    22     7     2   ar
    23    15    10   ar
    24    24    19   ar
    25     8     9    1
    26    16    17    1
@<TRIPOS>MOLECULE
*****
 24 26 0 0 0
SMALL
GASTEIGER

@<TRIPOS>ATOM
      1 C         144.8361  143.6679  165.6148 C.3     1  UNL1        0.0523
      2 C         143.8913  143.2550  164.5254 C.ar    1  UNL1        0.0650
      3 C         143.3947  141.8412  164.4592 C.ar    1  UNL1        0.0492
      4 C         142.4498  141.4284  163.3698 C.ar    1  UNL1        0.1362
      5 N         142.0016  142.4294  162.3466 N.ar    1  UNL1       -0.1988
      6 C         142.4981  143.8432  162.4128 C.ar    1  UNL1        0.2180
      7 N         143.4430  144.2560  163.5022 N.ar    1  UNL1       -0.2181
      8 N         141.9533  140.0144  163.3036 N.pl3   1  UNL1       -0.2978
      9 H         142.4188  139.3551  162.7399 H       1  UNL1        0.1536
     10 C         140.7474  139.6052  164.0964 C.ar    1  UNL1        0.0494
     11 C         139.8689  140.6498  164.7185 C.ar    1  UNL1        0.0146
     12 C         138.6631  140.2406  165.5113 C.ar    1  UNL1        0.0013
     13 C         138.3357  138.7867  165.6818 C.ar    1  UNL1        0.0001
     14 C         139.2142  137.7421  165.0597 C.ar    1  UNL1        0.0013
     15 C         140.4200  138.1514  164.2669 C.ar    1  UNL1        0.0146
     16 N         142.0498  144.8443  161.3896 N.pl3   1  UNL1       -0.2978
     17 H         142.6806  145.1643  160.7047 H       1  UNL1        0.1500
     18 C         140.6406  145.3578  161.4098 C.3     1  UNL1        0.1359
     19 C         139.6591  144.8158  162.4063 C.ar    1  UNL1        0.0788
     20 C         139.7482  145.2262  163.8463 C.ar    1  UNL1        0.0165
     21 C         138.7667  144.6842  164.8427 C.ar    1  UNL1        0.0029
     22 C         137.6962  143.7318  164.3991 C.ar    1  UNL1        0.0207
     23 C         137.6071  143.3213  162.9592 C.ar    1  UNL1        0.0985
     24 N         138.5886  143.8633  161.9628 N.ar    1  UNL1       -0.2464
@<TRIPOS>BOND
     1     1     2    1
     2     2     3   ar
     3     3     4   ar
     4     4     8    1
     5     8    10    1
     6    10    11   ar
     7    11    12   ar
     8    12    13   ar
     9    13    14   ar
    10    14    15   ar
    11     4     5   ar
    12     5     6   ar
    13     6    16    1
    14    16    18    1
    15    18    19    1
    16    19    20   ar
    17    20    21   ar
    18    21    22   ar
    19    22    23   ar
    20    23    24   ar
    21     6     7   ar
    22     7     2   ar
    23    15    10   ar
    24    24    19   ar
    25     8     9    1
    26    16    17    1
@<TRIPOS>MOLECULE
*****
 24 26 0 0 0
SMALL
GASTEIGER

@<TRIPOS>ATOM
      1 C         140.1416  144.5433  157.7701 C.3     1  UNL1        0.0523
      2 C         140.2559  144.3406  159.2520 C.ar    1  UNL1        0.0650
      3 C         141.4886  144.7917  159.9778 C.ar    1  UNL1        0.0492
      4 C         141.6028  144.5891  161.4597 C.ar    1  UNL1        0.1362
      5 N         140.4843  143.9353  162.2157 N.ar    1  UNL1       -0.1988
      6 C         139.2517  143.4842  161.4898 C.ar    1  UNL1        0.2180
      7 N         139.1374  143.6869  160.0080 N.ar    1  UNL1       -0.2181
      8 N         142.8356  145.0402  162.1855 N.pl3   1  UNL1       -0.2978
      9 H         143.0592  145.9981  162.2277 H       1  UNL1        0.1536
     10 C         143.7276  144.0320  162.8471 C.ar    1  UNL1        0.0494
     11 C         144.5122  143.0630  162.0130 C.ar    1  UNL1        0.0146
     12 C         145.4042  142.0548  162.6746 C.ar    1  UNL1        0.0013
     13 C         145.5117  142.0154  164.1703 C.ar    1  UNL1        0.0001
     14 C         144.7271  142.9843  165.0043 C.ar    1  UNL1        0.0013
     15 C         143.8351  143.9926  164.3427 C.ar    1  UNL1        0.0146
     16 N         138.1331  142.8304  162.2459 N.pl3   1  UNL1       -0.2978
     17 H         137.6376  143.3381  162.9285 H       1  UNL1        0.1500
     18 C         137.7695  141.4032  161.9617 C.3     1  UNL1        0.1359
     19 C         138.1249  140.3284  162.9459 C.ar    1  UNL1        0.0788
     20 C         138.0194  140.5950  164.4182 C.ar    1  UNL1        0.0165
     21 C         138.3749  139.5203  165.4024 C.ar    1  UNL1        0.0029
     22 C         138.8358  138.1789  164.9142 C.ar    1  UNL1        0.0207
     23 C         138.9413  137.9123  163.4419 C.ar    1  UNL1        0.0985
     24 N         138.5858  138.9871  162.4578 N.ar    1  UNL1       -0.2464
@<TRIPOS>BOND
     1     1     2    1
     2     2     3   ar
     3     3     4   ar
     4     4     8    1
     5     8    10    1
     6    10    11   ar
     7    11    12   ar
     8    12    13   ar
     9    13    14   ar
    10    14    15   ar
    11     4     5   ar
    12     5     6   ar
    13     6    16    1
    14    16    18    1
    15    18    19    1
    16    19    20   ar
    17    20    21   ar
    18    21    22   ar
    19    22    23   ar
    20    23    24   ar
    21     6     7   ar
    22     7     2   ar
    23    15    10   ar
    24    24    19   ar
    25     8     9    1
    26    16    17    1
@<TRIPOS>MOLECULE
*****
 24 26 0 0 0
SMALL
GASTEIGER

@<TRIPOS>ATOM
      1 C         138.8579  137.6187  162.8504 C.3     1  UNL1        0.0523
      2 C         138.8977  138.8290  163.7356 C.ar    1  UNL1        0.0650
      3 C         139.8312  138.8696  164.9090 C.ar    1  UNL1        0.0492
      4 C         139.8710  140.0799  165.7942 C.ar    1  UNL1        0.1362
      5 N         138.9774  141.2496  165.5060 N.ar    1  UNL1       -0.1988
      6 C         138.0439  141.2090  164.3326 C.ar    1  UNL1        0.2180
      7 N         138.0041  139.9987  163.4474 N.ar    1  UNL1       -0.2181
      8 N         140.8046  140.1204  166.9677 N.pl3   1  UNL1       -0.2978
      9 H         141.6106  139.5551  166.9752 H       1  UNL1        0.1536
     10 C         140.5099  141.0221  168.1296 C.ar    1  UNL1        0.0494
     11 C         139.5748  140.5698  169.2117 C.ar    1  UNL1        0.0146
     12 C         139.2802  141.4716  170.3736 C.ar    1  UNL1        0.0013
     13 C         139.9207  142.8256  170.4534 C.ar    1  UNL1        0.0001
     14 C         140.8558  143.2779  169.3713 C.ar    1  UNL1        0.0013
     15 C         141.1505  142.3761  168.2094 C.ar    1  UNL1        0.0146
     16 N         137.1502  142.3788  164.0443 N.pl3   1  UNL1       -0.2978
     17 H         136.2795  142.2371  163.6072 H       1  UNL1        0.1500
     18 C         137.5831  143.7644  164.4220 C.3     1  UNL1        0.1359
     19 C         138.7868  144.3779  163.7702 C.ar    1  UNL1        0.0788
     20 C         140.0819  144.4690  164.5214 C.ar    1  UNL1        0.0165
     21 C         141.2855  145.0825  163.8696 C.ar    1  UNL1        0.0029
     22 C         141.1939  145.6050  162.4665 C.ar    1  UNL1        0.0207
     23 C         139.8988  145.5140  161.7153 C.ar    1  UNL1        0.0985
     24 N         138.6953  144.9004  162.3671 N.ar    1  UNL1       -0.2464
@<TRIPOS>BOND
     1     1     2    1
     2     2     3   ar
     3     3     4   ar
     4     4     8    1
     5     8    10    1
     6    10    11   ar
     7    11    12   ar
     8    12    13   ar
     9    13    14   ar
    10    14    15   ar
    11     4     5   ar
    12     5     6   ar
    13     6    16    1
    14    16    18    1
    15    18    19    1
    16    19    20   ar
    17    20    21   ar
    18    21    22   ar
    19    22    23   ar
    20    23    24   ar
    21     6     7   ar
    22     7     2   ar
    23    15    10   ar
    24    24    19   ar
    25     8     9    1
    26    16    17    1
@<TRIPOS>MOLECULE
*****
 24 26 0 0 0
SMALL
GASTEIGER

@<TRIPOS>ATOM
      1 C         145.1943  141.9738  162.0089 C.3     1  UNL1        0.0523
      2 C         144.1668  142.4849  162.9747 C.ar    1  UNL1        0.0650
      3 C         143.8221  141.6852  164.1960 C.ar    1  UNL1        0.0492
      4 C         142.7945  142.1964  165.1619 C.ar    1  UNL1        0.1362
      5 N         142.1117  143.5072  164.9064 N.ar    1  UNL1       -0.1988
      6 C         142.4564  144.3069  163.6851 C.ar    1  UNL1        0.2180
      7 N         143.4839  143.7958  162.7193 N.ar    1  UNL1       -0.2181
      8 N         142.4499  141.3966  166.3832 N.pl3   1  UNL1       -0.2978
      9 H         142.4630  140.4128  166.3473 H       1  UNL1        0.1536
     10 C         142.0852  142.0957  167.6593 C.ar    1  UNL1        0.0494
     11 C         143.1127  142.2722  168.7378 C.ar    1  UNL1        0.0146
     12 C         142.7481  142.9714  170.0138 C.ar    1  UNL1        0.0013
     13 C         141.3559  143.4940  170.2113 C.ar    1  UNL1        0.0001
     14 C         140.3285  143.3175  169.1328 C.ar    1  UNL1        0.0013
     15 C         140.6932  142.6183  167.8568 C.ar    1  UNL1        0.0146
     16 N         141.7735  145.6179  163.4296 N.pl3   1  UNL1       -0.2978
     17 H         142.1588  146.4511  163.7852 H       1  UNL1        0.1500
     18 C         140.5036  145.6592  162.6324 C.3     1  UNL1        0.1359
     19 C         139.4403  144.6262  162.8613 C.ar    1  UNL1        0.0788
     20 C         138.8599  144.4382  164.2316 C.ar    1  UNL1        0.0165
     21 C         137.7967  143.4053  164.4605 C.ar    1  UNL1        0.0029
     22 C         137.3138  142.5602  163.3191 C.ar    1  UNL1        0.0207
     23 C         137.8943  142.7482  161.9488 C.ar    1  UNL1        0.0985
     24 N         138.9575  143.7811  161.7199 N.ar    1  UNL1       -0.2464
@<TRIPOS>BOND
     1     1     2    1
     2     2     3   ar
     3     3     4   ar
     4     4     8    1
     5     8    10    1
     6    10    11   ar
     7    11    12   ar
     8    12    13   ar
     9    13    14   ar
    10    14    15   ar
    11     4     5   ar
    12     5     6   ar
    13     6    16    1
    14    16    18    1
    15    18    19    1
    16    19    20   ar
    17    20    21   ar
    18    21    22   ar
    19    22    23   ar
    20    23    24   ar
    21     6     7   ar
    22     7     2   ar
    23    15    10   ar
    24    24    19   ar
    25     8     9    1
    26    16    17    1
