@<TRIPOS>MOLECULE
*****
 31 34 0 0 0
SMALL
GASTEIGER

@<TRIPOS>ATOM
      1 C         139.6428  138.9610  162.2293 C.ar    1  UNL1        0.0824
      2 C         139.0866  137.7449  162.9087 C.ar    1  UNL1        0.0192
      3 C         138.9029  137.7356  164.3974 C.ar    1  UNL1        0.0030
      4 C         139.2754  138.9424  165.2066 C.ar    1  UNL1        0.0174
      5 C         139.0917  138.9331  166.6953 C.ar    1  UNL1       -0.0027
      6 C         139.4642  140.1399  167.5045 C.ar    1  UNL1       -0.0207
      7 C         140.0204  141.3561  166.8250 C.ar    1  UNL1       -0.0027
      8 C         140.2041  141.3654  165.3364 C.ar    1  UNL1        0.0188
      9 C         139.8316  140.1585  164.5272 C.ar    1  UNL1        0.0812
     10 N         140.0153  140.1678  163.0385 N.ar    1  UNL1       -0.2453
     11 C         140.3777  138.9983  156.2746 C.3     1  UNL1        0.0522
     12 C         140.1940  138.9890  157.7632 C.ar    1  UNL1        0.0633
     13 N         138.8862  139.4172  158.3602 N.ar    1  UNL1       -0.2538
     14 C         138.7025  139.4079  159.8489 C.ar    1  UNL1        0.0604
     15 C         137.3947  139.8361  160.4459 C.3     1  UNL1        0.0521
     16 C         139.8265  138.9703  160.7406 C.ar    1  UNL1        0.0314
     17 C         141.1342  138.5421  160.1436 C.ar    1  UNL1        0.0084
     18 C         141.3180  138.5514  158.6549 C.ar    1  UNL1        0.0667
     19 C         142.6258  138.1232  158.0580 C.2     1  UNL1        0.2439
     20 N         142.8047  136.7139  157.5765 N.am    1  UNL1       -0.3253
     21 O         143.7546  139.1043  157.9425 O.2     1  UNL1       -0.2703
     22 H         142.0639  136.0700  157.6523 H       1  UNL1        0.1453
     23 H         143.6631  136.4328  157.1847 H       1  UNL1        0.1453
     24 C         139.2805  140.1306  168.9932 C.3     1  UNL1        0.0437
     25 C         140.4690  139.9719  169.8946 C.3     1  UNL1        0.0768
     26 N         141.5203  141.0405  169.9447 N.3     1  UNL1       -0.2737
     27 C         142.9879  140.8456  169.7028 C.3     1  UNL1        0.0721
     28 C         143.6633  142.1763  169.8541 C.3     1  UNL1        0.0187
     29 C         142.6132  143.1937  170.1895 C.3     1  UNL1        0.0174
     30 C         141.2889  142.4917  170.2455 C.3     1  UNL1        0.0576
     31 C         139.9653  143.1290  170.5490 C.3     1  UNL1        0.0173
@<TRIPOS>BOND
     1    11    12    1
     2    12    13   ar
     3    13    14   ar
     4    14    15    1
     5    14    16   ar
     6    16     1    1
     7     1     2   ar
     8     2     3   ar
     9     3     4   ar
    10     4     5   ar
    11     5     6   ar
    12     6    24    1
    13    24    25    1
    14    25    26    1
    15    26    27    1
    16    27    28    1
    17    28    29    1
    18    29    30    1
    19    30    31    1
    20     6     7   ar
    21     7     8   ar
    22     8     9   ar
    23     9    10   ar
    24    16    17   ar
    25    17    18   ar
    26    18    19    1
    27    19    20   am
    28    19    21    2
    29    18    12   ar
    30    10     1   ar
    31     9     4   ar
    32    30    26    1
    33    20    22    1
    34    20    23    1
@<TRIPOS>MOLECULE
*****
 31 34 0 0 0
SMALL
GASTEIGER

@<TRIPOS>ATOM
      1 C         140.5347  139.2206  165.1205 C.ar    1  UNL1        0.0824
      2 C         139.8295  137.9425  164.7754 C.ar    1  UNL1        0.0192
      3 C         139.4251  137.6684  163.3572 C.ar    1  UNL1        0.0030
      4 C         139.7259  138.6725  162.2842 C.ar    1  UNL1        0.0174
      5 C         139.3214  138.3984  160.8659 C.ar    1  UNL1       -0.0027
      6 C         139.6222  139.4024  159.7928 C.ar    1  UNL1       -0.0207
      7 C         140.3274  140.6805  160.1380 C.ar    1  UNL1       -0.0027
      8 C         140.7318  140.9546  161.5562 C.ar    1  UNL1        0.0188
      9 C         140.4311  139.9506  162.6293 C.ar    1  UNL1        0.0812
     10 N         140.8355  140.2246  164.0475 N.ar    1  UNL1       -0.2453
     11 C         142.1523  140.3170  170.7934 C.3     1  UNL1        0.0522
     12 C         141.7480  140.0429  169.3752 C.ar    1  UNL1        0.0633
     13 N         142.7645  139.5537  168.3866 N.ar    1  UNL1       -0.2538
     14 C         142.3601  139.2796  166.9684 C.ar    1  UNL1        0.0604
     15 C         143.3766  138.7904  165.9798 C.3     1  UNL1        0.0521
     16 C         140.9391  139.4947  166.5388 C.ar    1  UNL1        0.0314
     17 C         139.9226  139.9839  167.5274 C.ar    1  UNL1        0.0084
     18 C         140.3269  140.2580  168.9456 C.ar    1  UNL1        0.0667
     19 C         139.3104  140.7471  169.9341 C.2     1  UNL1        0.2439
     20 N         138.2243  139.8285  170.4099 N.am    1  UNL1       -0.3253
     21 O         139.3800  142.1551  170.4470 O.2     1  UNL1       -0.2703
     22 H         138.1786  138.9044  170.0733 H       1  UNL1        0.1453
     23 H         137.5571  140.1495  171.0587 H       1  UNL1        0.1453
     24 C         139.2178  139.1283  158.3747 C.3     1  UNL1        0.0437
     25 C         140.2508  139.1273  157.2870 C.3     1  UNL1        0.0768
     26 N         141.0891  137.9062  157.0500 N.3     1  UNL1       -0.2737
     27 C         140.8205  136.8359  156.0340 C.3     1  UNL1        0.0721
     28 C         141.9086  135.8092  156.1435 C.3     1  UNL1        0.0187
     29 C         142.8497  136.2451  157.2273 C.3     1  UNL1        0.0174
     30 C         142.3432  137.5411  157.7875 C.3     1  UNL1        0.0576
     31 C         142.9792  138.3328  158.8913 C.3     1  UNL1        0.0173
@<TRIPOS>BOND
     1    11    12    1
     2    12    13   ar
     3    13    14   ar
     4    14    15    1
     5    14    16   ar
     6    16     1    1
     7     1     2   ar
     8     2     3   ar
     9     3     4   ar
    10     4     5   ar
    11     5     6   ar
    12     6    24    1
    13    24    25    1
    14    25    26    1
    15    26    27    1
    16    27    28    1
    17    28    29    1
    18    29    30    1
    19    30    31    1
    20     6     7   ar
    21     7     8   ar
    22     8     9   ar
    23     9    10   ar
    24    16    17   ar
    25    17    18   ar
    26    18    19    1
    27    19    20   am
    28    19    21    2
    29    18    12   ar
    30    10     1   ar
    31     9     4   ar
    32    30    26    1
    33    20    22    1
    34    20    23    1
@<TRIPOS>MOLECULE
*****
 31 34 0 0 0
SMALL
GASTEIGER

@<TRIPOS>ATOM
      1 C         141.4509  138.4230  159.6097 C.ar    1  UNL1        0.0824
      2 C         139.9669  138.5828  159.4609 C.ar    1  UNL1        0.0192
      3 C         139.0718  138.4187  160.6533 C.ar    1  UNL1        0.0030
      4 C         139.6606  138.0949  161.9943 C.ar    1  UNL1        0.0174
      5 C         138.7653  137.9309  163.1867 C.ar    1  UNL1       -0.0027
      6 C         139.3542  137.6071  164.5278 C.ar    1  UNL1       -0.0207
      7 C         140.8383  137.4473  164.6764 C.ar    1  UNL1       -0.0027
      8 C         141.7334  137.6114  163.4841 C.ar    1  UNL1        0.0188
      9 C         141.1446  137.9352  162.1430 C.ar    1  UNL1        0.0812
     10 N         142.0398  138.0993  160.9507 N.ar    1  UNL1       -0.2453
     11 C         145.0318  139.0792  154.8403 C.3     1  UNL1        0.0522
     12 C         144.1366  138.9152  156.0326 C.ar    1  UNL1        0.0633
     13 N         144.0844  139.9838  157.0839 N.ar    1  UNL1       -0.2538
     14 C         143.1892  139.8197  158.2763 C.ar    1  UNL1        0.0604
     15 C         143.1370  140.8884  159.3276 C.3     1  UNL1        0.0521
     16 C         142.3462  138.5871  158.4173 C.ar    1  UNL1        0.0314
     17 C         142.3984  137.5185  157.3659 C.ar    1  UNL1        0.0084
     18 C         143.2936  137.6825  156.1736 C.ar    1  UNL1        0.0667
     19 C         143.3458  136.6138  155.1223 C.2     1  UNL1        0.2439
     20 N         144.3427  135.4988  155.2351 N.am    1  UNL1       -0.3253
     21 O         142.4010  136.6603  153.9581 O.2     1  UNL1       -0.2703
     22 H         144.9628  135.4683  155.9992 H       1  UNL1        0.1453
     23 H         144.3770  134.7974  154.5451 H       1  UNL1        0.1453
     24 C         138.4590  137.4430  165.7201 C.3     1  UNL1        0.0437
     25 C         138.0326  138.6455  166.5090 C.3     1  UNL1        0.0768
     26 N         138.9528  139.8231  166.6374 N.3     1  UNL1       -0.2737
     27 C         139.9741  140.0305  167.7163 C.3     1  UNL1        0.0721
     28 C         140.6658  141.3356  167.4552 C.3     1  UNL1        0.0187
     29 C         140.0718  141.9349  166.2149 C.3     1  UNL1        0.0174
     30 C         139.0132  141.0001  165.7096 C.3     1  UNL1        0.0576
     31 C         138.1640  141.2062  164.4904 C.3     1  UNL1        0.0173
@<TRIPOS>BOND
     1    11    12    1
     2    12    13   ar
     3    13    14   ar
     4    14    15    1
     5    14    16   ar
     6    16     1    1
     7     1     2   ar
     8     2     3   ar
     9     3     4   ar
    10     4     5   ar
    11     5     6   ar
    12     6    24    1
    13    24    25    1
    14    25    26    1
    15    26    27    1
    16    27    28    1
    17    28    29    1
    18    29    30    1
    19    30    31    1
    20     6     7   ar
    21     7     8   ar
    22     8     9   ar
    23     9    10   ar
    24    16    17   ar
    25    17    18   ar
    26    18    19    1
    27    19    20   am
    28    19    21    2
    29    18    12   ar
    30    10     1   ar
    31     9     4   ar
    32    30    26    1
    33    20    22    1
    34    20    23    1
@<TRIPOS>MOLECULE
*****
 31 34 0 0 0
SMALL
GASTEIGER

@<TRIPOS>ATOM
      1 C         140.0239  143.0987  164.8178 C.ar    1  UNL1        0.0824
      2 C         138.9384  144.0627  164.4406 C.ar    1  UNL1        0.0192
      3 C         138.9663  144.7369  163.1009 C.ar    1  UNL1        0.0030
      4 C         140.0798  144.4471  162.1386 C.ar    1  UNL1        0.0174
      5 C         140.1077  145.1214  160.7989 C.ar    1  UNL1       -0.0027
      6 C         141.2212  144.8317  159.8365 C.ar    1  UNL1       -0.0207
      7 C         142.3068  143.8676  160.2138 C.ar    1  UNL1       -0.0027
      8 C         142.2788  143.1934  161.5534 C.ar    1  UNL1        0.0188
      9 C         141.1653  143.4832  162.5158 C.ar    1  UNL1        0.0812
     10 N         141.1374  142.8089  163.8554 N.ar    1  UNL1       -0.2453
     11 C         139.9122  140.4017  170.1763 C.3     1  UNL1        0.0522
     12 C         139.9401  141.0759  168.8367 C.ar    1  UNL1        0.0633
     13 N         139.5454  140.3150  167.6058 N.ar    1  UNL1       -0.2538
     14 C         139.5733  140.9893  166.2661 C.ar    1  UNL1        0.0604
     15 C         139.1785  140.2284  165.0351 C.3     1  UNL1        0.0521
     16 C         139.9959  142.4244  166.1574 C.ar    1  UNL1        0.0314
     17 C         140.3907  143.1853  167.3884 C.ar    1  UNL1        0.0084
     18 C         140.3628  142.5110  168.7280 C.ar    1  UNL1        0.0667
     19 C         140.7575  143.2719  169.9590 C.2     1  UNL1        0.2439
     20 N         142.1800  143.2438  170.4341 N.am    1  UNL1       -0.3253
     21 O         139.7297  144.0609  170.7148 O.2     1  UNL1       -0.2703
     22 H         142.8545  142.7260  169.9380 H       1  UNL1        0.1453
     23 H         142.4390  143.7432  171.2420 H       1  UNL1        0.1453
     24 C         141.2492  145.5059  158.4969 C.3     1  UNL1        0.0437
     25 C         140.0299  145.4892  157.6232 C.3     1  UNL1        0.0768
     26 N         139.9348  146.4197  156.4506 N.3     1  UNL1       -0.2737
     27 C         139.0271  147.6088  156.3399 C.3     1  UNL1        0.0721
     28 C         139.2619  148.2484  155.0036 C.3     1  UNL1        0.0187
     29 C         140.3147  147.4546  154.2884 C.3     1  UNL1        0.0174
     30 C         140.7305  146.3244  155.1826 C.3     1  UNL1        0.0576
     31 C         141.7612  145.2819  154.8648 C.3     1  UNL1        0.0173
@<TRIPOS>BOND
     1    11    12    1
     2    12    13   ar
     3    13    14   ar
     4    14    15    1
     5    14    16   ar
     6    16     1    1
     7     1     2   ar
     8     2     3   ar
     9     3     4   ar
    10     4     5   ar
    11     5     6   ar
    12     6    24    1
    13    24    25    1
    14    25    26    1
    15    26    27    1
    16    27    28    1
    17    28    29    1
    18    29    30    1
    19    30    31    1
    20     6     7   ar
    21     7     8   ar
    22     8     9   ar
    23     9    10   ar
    24    16    17   ar
    25    17    18   ar
    26    18    19    1
    27    19    20   am
    28    19    21    2
    29    18    12   ar
    30    10     1   ar
    31     9     4   ar
    32    30    26    1
    33    20    22    1
    34    20    23    1
@<TRIPOS>MOLECULE
*****
 31 34 0 0 0
SMALL
GASTEIGER

@<TRIPOS>ATOM
      1 C         140.6229  140.1052  165.3510 C.ar    1  UNL1        0.0824
      2 C         139.4515  139.5673  164.5840 C.ar    1  UNL1        0.0192
      3 C         139.6685  138.8770  163.2702 C.ar    1  UNL1        0.0030
      4 C         141.0569  138.7245  162.7233 C.ar    1  UNL1        0.0174
      5 C         141.2739  138.0341  161.4094 C.ar    1  UNL1       -0.0027
      6 C         142.6623  137.8817  160.8625 C.ar    1  UNL1       -0.0207
      7 C         143.8338  138.4197  161.6296 C.ar    1  UNL1       -0.0027
      8 C         143.6167  139.1100  162.9435 C.ar    1  UNL1        0.0188
      9 C         142.2283  139.2625  163.4903 C.ar    1  UNL1        0.0812
     10 N         142.0113  139.9528  164.8042 N.ar    1  UNL1       -0.2453
     11 C         139.7550  142.8666  170.6067 C.3     1  UNL1        0.0522
     12 C         139.9720  142.1763  169.2928 C.ar    1  UNL1        0.0633
     13 N         140.5095  142.9443  168.1218 N.ar    1  UNL1       -0.2538
     14 C         140.7265  142.2539  166.8079 C.ar    1  UNL1        0.0604
     15 C         141.2640  143.0220  165.6369 C.3     1  UNL1        0.0521
     16 C         140.4059  140.7956  166.6650 C.ar    1  UNL1        0.0314
     17 C         139.8684  140.0276  167.8360 C.ar    1  UNL1        0.0084
     18 C         139.6514  140.7179  169.1499 C.ar    1  UNL1        0.0667
     19 C         139.1139  139.9499  170.3208 C.2     1  UNL1        0.2439
     20 N         140.0540  139.3978  171.3510 N.am    1  UNL1       -0.3253
     21 O         137.6361  139.7339  170.4616 O.2     1  UNL1       -0.2703
     22 H         141.0239  139.5396  171.2587 H       1  UNL1        0.1453
     23 H         139.7012  138.8938  172.1196 H       1  UNL1        0.1453
     24 C         142.8793  137.1914  159.5487 C.3     1  UNL1        0.0437
     25 C         142.6654  137.9375  158.2650 C.3     1  UNL1        0.0768
     26 N         141.7474  137.3805  157.2178 N.3     1  UNL1       -0.2737
     27 C         140.3019  137.7361  157.0330 C.3     1  UNL1        0.0721
     28 C         139.7747  136.9454  155.8724 C.3     1  UNL1        0.0187
     29 C         140.8944  136.1011  155.3399 C.3     1  UNL1        0.0174
     30 C         142.1135  136.3700  156.1714 C.3     1  UNL1        0.0576
     31 C         143.4621  135.7392  155.9886 C.3     1  UNL1        0.0173
@<TRIPOS>BOND
     1    11    12    1
     2    12    13   ar
     3    13    14   ar
     4    14    15    1
     5    14    16   ar
     6    16     1    1
     7     1     2   ar
     8     2     3   ar
     9     3     4   ar
    10     4     5   ar
    11     5     6   ar
    12     6    24    1
    13    24    25    1
    14    25    26    1
    15    26    27    1
    16    27    28    1
    17    28    29    1
    18    29    30    1
    19    30    31    1
    20     6     7   ar
    21     7     8   ar
    22     8     9   ar
    23     9    10   ar
    24    16    17   ar
    25    17    18   ar
    26    18    19    1
    27    19    20   am
    28    19    21    2
    29    18    12   ar
    30    10     1   ar
    31     9     4   ar
    32    30    26    1
    33    20    22    1
    34    20    23    1
@<TRIPOS>MOLECULE
*****
 31 34 0 0 0
SMALL
GASTEIGER

@<TRIPOS>ATOM
      1 C         142.9072  140.0840  164.6646 C.ar    1  UNL1        0.0824
      2 C         144.1067  139.3655  164.1216 C.ar    1  UNL1        0.0192
      3 C         144.0947  138.8423  162.7159 C.ar    1  UNL1        0.0030
      4 C         142.8833  139.0377  161.8532 C.ar    1  UNL1        0.0174
      5 C         142.8713  138.5145  160.4474 C.ar    1  UNL1       -0.0027
      6 C         141.6599  138.7098  159.5847 C.ar    1  UNL1       -0.0207
      7 C         140.4604  139.4283  160.1278 C.ar    1  UNL1       -0.0027
      8 C         140.4723  139.9515  161.5335 C.ar    1  UNL1        0.0188
      9 C         141.6838  139.7562  162.3962 C.ar    1  UNL1        0.0812
     10 N         141.6957  140.2793  163.8019 N.ar    1  UNL1       -0.2453
     11 C         142.9548  142.1767  170.2877 C.3     1  UNL1        0.0522
     12 C         142.9429  141.6535  168.8820 C.ar    1  UNL1        0.0633
     13 N         143.2987  142.5602  167.7412 N.ar    1  UNL1       -0.2538
     14 C         143.2868  142.0370  166.3354 C.ar    1  UNL1        0.0604
     15 C         143.6426  142.9437  165.1947 C.3     1  UNL1        0.0521
     16 C         142.9191  140.6072  166.0704 C.ar    1  UNL1        0.0314
     17 C         142.5632  139.7005  167.2111 C.ar    1  UNL1        0.0084
     18 C         142.5751  140.2236  168.6169 C.ar    1  UNL1        0.0667
     19 C         142.2193  139.3169  169.7576 C.2     1  UNL1        0.2439
     20 N         140.8620  139.4044  170.3900 N.am    1  UNL1       -0.3253
     21 O         143.2209  138.3226  170.2660 O.2     1  UNL1       -0.2703
     22 H         140.2046  140.0569  170.0564 H       1  UNL1        0.1453
     23 H         140.6285  138.8093  171.1387 H       1  UNL1        0.1453
     24 C         141.6479  138.1866  158.1789 C.3     1  UNL1        0.0437
     25 C         142.6377  137.1404  157.7596 C.3     1  UNL1        0.0768
     26 N         142.2585  136.1200  156.7276 N.3     1  UNL1       -0.2737
     27 C         141.3470  136.3457  155.5579 C.3     1  UNL1        0.0721
     28 C         141.2494  135.0600  154.7914 C.3     1  UNL1        0.0187
     29 C         142.1007  134.0397  155.4874 C.3     1  UNL1        0.0174
     30 C         142.7243  134.6949  156.6840 C.3     1  UNL1        0.0576
     31 C         143.6511  134.0398  157.6648 C.3     1  UNL1        0.0173
@<TRIPOS>BOND
     1    11    12    1
     2    12    13   ar
     3    13    14   ar
     4    14    15    1
     5    14    16   ar
     6    16     1    1
     7     1     2   ar
     8     2     3   ar
     9     3     4   ar
    10     4     5   ar
    11     5     6   ar
    12     6    24    1
    13    24    25    1
    14    25    26    1
    15    26    27    1
    16    27    28    1
    17    28    29    1
    18    29    30    1
    19    30    31    1
    20     6     7   ar
    21     7     8   ar
    22     8     9   ar
    23     9    10   ar
    24    16    17   ar
    25    17    18   ar
    26    18    19    1
    27    19    20   am
    28    19    21    2
    29    18    12   ar
    30    10     1   ar
    31     9     4   ar
    32    30    26    1
    33    20    22    1
    34    20    23    1
@<TRIPOS>MOLECULE
*****
 31 34 0 0 0
SMALL
GASTEIGER

@<TRIPOS>ATOM
      1 C         140.1743  139.4633  165.1768 C.ar    1  UNL1        0.0824
      2 C         139.5379  138.1795  164.7334 C.ar    1  UNL1        0.0192
      3 C         138.8901  138.0907  163.3835 C.ar    1  UNL1        0.0030
      4 C         138.8786  139.2858  162.4770 C.ar    1  UNL1        0.0174
      5 C         138.2307  139.1970  161.1270 C.ar    1  UNL1       -0.0027
      6 C         138.2192  140.3920  160.2205 C.ar    1  UNL1       -0.0207
      7 C         138.8556  141.6759  160.6641 C.ar    1  UNL1       -0.0027
      8 C         139.5035  141.7647  162.0140 C.ar    1  UNL1        0.0188
      9 C         139.5150  140.5696  162.9205 C.ar    1  UNL1        0.0812
     10 N         140.1628  140.6584  164.2704 N.ar    1  UNL1       -0.2453
     11 C         142.7658  139.8186  170.5767 C.3     1  UNL1        0.0522
     12 C         142.1180  139.7298  169.2268 C.ar    1  UNL1        0.0633
     13 N         142.9274  139.3212  168.0318 N.ar    1  UNL1       -0.2538
     14 C         142.2795  139.2324  166.6818 C.ar    1  UNL1        0.0604
     15 C         143.0889  138.8238  165.4869 C.3     1  UNL1        0.0521
     16 C         140.8222  139.5521  166.5268 C.ar    1  UNL1        0.0314
     17 C         140.0128  139.9607  167.7218 C.ar    1  UNL1        0.0084
     18 C         140.6606  140.0496  169.0717 C.ar    1  UNL1        0.0667
     19 C         139.8512  140.4582  170.2666 C.2     1  UNL1        0.2439
     20 N         139.5686  141.9092  170.5205 N.am    1  UNL1       -0.3253
     21 O         139.3243  139.4156  171.2077 O.2     1  UNL1       -0.2703
     22 H         139.9145  142.5935  169.9029 H       1  UNL1        0.1453
     23 H         139.0374  142.1774  171.3048 H       1  UNL1        0.1453
     24 C         137.5713  140.3033  158.8706 C.3     1  UNL1        0.0437
     25 C         138.3445  140.6793  157.6414 C.3     1  UNL1        0.0768
     26 N         137.9325  141.8731  156.8322 N.3     1  UNL1       -0.2737
     27 C         138.7219  143.1370  156.6605 C.3     1  UNL1        0.0721
     28 C         137.9360  144.0578  155.7748 C.3     1  UNL1        0.0187
     29 C         136.6608  143.3629  155.3990 C.3     1  UNL1        0.0174
     30 C         136.6586  142.0128  156.0526 C.3     1  UNL1        0.0576
     31 C         135.5732  140.9830  155.9453 C.3     1  UNL1        0.0173
@<TRIPOS>BOND
     1    11    12    1
     2    12    13   ar
     3    13    14   ar
     4    14    15    1
     5    14    16   ar
     6    16     1    1
     7     1     2   ar
     8     2     3   ar
     9     3     4   ar
    10     4     5   ar
    11     5     6   ar
    12     6    24    1
    13    24    25    1
    14    25    26    1
    15    26    27    1
    16    27    28    1
    17    28    29    1
    18    29    30    1
    19    30    31    1
    20     6     7   ar
    21     7     8   ar
    22     8     9   ar
    23     9    10   ar
    24    16    17   ar
    25    17    18   ar
    26    18    19    1
    27    19    20   am
    28    19    21    2
    29    18    12   ar
    30    10     1   ar
    31     9     4   ar
    32    30    26    1
    33    20    22    1
    34    20    23    1
@<TRIPOS>MOLECULE
*****
 31 34 0 0 0
SMALL
GASTEIGER

@<TRIPOS>ATOM
      1 C         140.9218  139.0894  165.0749 C.ar    1  UNL1        0.0824
      2 C         141.1186  137.6592  164.6677 C.ar    1  UNL1        0.0192
      3 C         141.3238  137.3123  163.2229 C.ar    1  UNL1        0.0030
      4 C         141.3322  138.3955  162.1853 C.ar    1  UNL1        0.0174
      5 C         141.5374  138.0484  160.7404 C.ar    1  UNL1       -0.0027
      6 C         141.5458  139.1316  159.7028 C.ar    1  UNL1       -0.0207
      7 C         141.3489  140.5619  160.1101 C.ar    1  UNL1       -0.0027
      8 C         141.1437  140.9088  161.5549 C.ar    1  UNL1        0.0188
      9 C         141.1353  139.8256  162.5925 C.ar    1  UNL1        0.0812
     10 N         140.9301  140.1726  164.0373 N.ar    1  UNL1       -0.2453
     11 C         140.1010  140.4774  170.8542 C.3     1  UNL1        0.0522
     12 C         140.3062  140.1304  169.4094 C.ar    1  UNL1        0.0633
     13 N         139.1277  139.7955  168.5438 N.ar    1  UNL1       -0.2538
     14 C         139.3330  139.4485  167.0990 C.ar    1  UNL1        0.0604
     15 C         138.1546  139.1136  166.2334 C.3     1  UNL1        0.0521
     16 C         140.7165  139.4364  166.5197 C.ar    1  UNL1        0.0314
     17 C         141.8949  139.7713  167.3853 C.ar    1  UNL1        0.0084
     18 C         141.6898  140.1183  168.8301 C.ar    1  UNL1        0.0667
     19 C         142.8682  140.4532  169.6956 C.2     1  UNL1        0.2439
     20 N         143.4787  141.8219  169.6346 N.am    1  UNL1       -0.3253
     21 O         143.4361  139.4192  170.6222 O.2     1  UNL1       -0.2703
     22 H         143.1060  142.5005  169.0265 H       1  UNL1        0.1453
     23 H         144.2521  142.0417  170.2027 H       1  UNL1        0.1453
     24 C         141.7510  138.7847  158.2581 C.3     1  UNL1        0.0437
     25 C         142.5039  137.5422  157.8847 C.3     1  UNL1        0.0768
     26 N         141.9829  136.6471  156.7997 N.3     1  UNL1       -0.2737
     27 C         140.8948  136.9853  155.8242 C.3     1  UNL1        0.0721
     28 C         140.6980  135.8039  154.9212 C.3     1  UNL1        0.0187
     29 C         141.6645  134.7354  155.3387 C.3     1  UNL1        0.0174
     30 C         142.4586  135.2565  156.4996 C.3     1  UNL1        0.0576
     31 C         143.5388  134.5169  157.2319 C.3     1  UNL1        0.0173
@<TRIPOS>BOND
     1    11    12    1
     2    12    13   ar
     3    13    14   ar
     4    14    15    1
     5    14    16   ar
     6    16     1    1
     7     1     2   ar
     8     2     3   ar
     9     3     4   ar
    10     4     5   ar
    11     5     6   ar
    12     6    24    1
    13    24    25    1
    14    25    26    1
    15    26    27    1
    16    27    28    1
    17    28    29    1
    18    29    30    1
    19    30    31    1
    20     6     7   ar
    21     7     8   ar
    22     8     9   ar
    23     9    10   ar
    24    16    17   ar
    25    17    18   ar
    26    18    19    1
    27    19    20   am
    28    19    21    2
    29    18    12   ar
    30    10     1   ar
    31     9     4   ar
    32    30    26    1
    33    20    22    1
    34    20    23    1
@<TRIPOS>MOLECULE
*****
 31 34 0 0 0
SMALL
GASTEIGER

@<TRIPOS>ATOM
      1 C         139.2850  141.5904  165.0062 C.ar    1  UNL1        0.0824
      2 C         138.0814  142.4205  164.6713 C.ar    1  UNL1        0.0192
      3 C         137.7406  142.7031  163.2381 C.ar    1  UNL1        0.0030
      4 C         138.6033  142.1557  162.1400 C.ar    1  UNL1        0.0174
      5 C         138.2625  142.4384  160.7068 C.ar    1  UNL1       -0.0027
      6 C         139.1253  141.8910  159.6086 C.ar    1  UNL1       -0.0207
      7 C         140.3289  141.0609  159.9437 C.ar    1  UNL1       -0.0027
      8 C         140.6697  140.7782  161.3768 C.ar    1  UNL1        0.0188
      9 C         139.8069  141.3256  162.4750 C.ar    1  UNL1        0.0812
     10 N         140.1478  141.0430  163.9081 N.ar    1  UNL1       -0.2453
     11 C         140.6485  140.4597  170.7388 C.3     1  UNL1        0.0522
     12 C         140.3076  140.7423  169.3057 C.ar    1  UNL1        0.0633
     13 N         139.4943  139.7570  168.5198 N.ar    1  UNL1       -0.2538
     14 C         139.1534  140.0397  167.0867 C.ar    1  UNL1        0.0604
     15 C         138.3401  139.0543  166.3008 C.3     1  UNL1        0.0521
     16 C         139.6258  141.3077  166.4394 C.ar    1  UNL1        0.0314
     17 C         140.4392  142.2930  167.2253 C.ar    1  UNL1        0.0084
     18 C         140.7800  142.0104  168.6584 C.ar    1  UNL1        0.0667
     19 C         141.5934  142.9957  169.4443 C.2     1  UNL1        0.2439
     20 N         140.9102  144.0831  170.2195 N.am    1  UNL1       -0.3253
     21 O         143.0899  142.8937  169.4550 O.2     1  UNL1       -0.2703
     22 H         139.9280  144.1500  170.2125 H       1  UNL1        0.1453
     23 H         141.4440  144.7298  170.7353 H       1  UNL1        0.1453
     24 C         138.7844  142.1737  158.1755 C.3     1  UNL1        0.0437
     25 C         139.8018  142.8075  157.2736 C.3     1  UNL1        0.0768
     26 N         139.6814  144.2576  156.9094 N.3     1  UNL1       -0.2737
     27 C         139.0318  144.8052  155.6732 C.3     1  UNL1        0.0721
     28 C         139.1384  146.3008  155.7173 C.3     1  UNL1        0.0187
     29 C         139.8537  146.6774  156.9808 C.3     1  UNL1        0.0174
     30 C         140.1893  145.4147  157.7176 C.3     1  UNL1        0.0576
     31 C         140.9068  145.3248  159.0317 C.3     1  UNL1        0.0173
@<TRIPOS>BOND
     1    11    12    1
     2    12    13   ar
     3    13    14   ar
     4    14    15    1
     5    14    16   ar
     6    16     1    1
     7     1     2   ar
     8     2     3   ar
     9     3     4   ar
    10     4     5   ar
    11     5     6   ar
    12     6    24    1
    13    24    25    1
    14    25    26    1
    15    26    27    1
    16    27    28    1
    17    28    29    1
    18    29    30    1
    19    30    31    1
    20     6     7   ar
    21     7     8   ar
    22     8     9   ar
    23     9    10   ar
    24    16    17   ar
    25    17    18   ar
    26    18    19    1
    27    19    20   am
    28    19    21    2
    29    18    12   ar
    30    10     1   ar
    31     9     4   ar
    32    30    26    1
    33    20    22    1
    34    20    23    1
