@<TRIPOS>MOLECULE
*****
 30 34 0 0 0
SMALL
GASTEIGER

@<TRIPOS>ATOM
      1 C         141.0847  144.4107  162.7484 C.3     1  UNL1        0.0180
      2 C         140.7050  143.2584  163.6305 C.3     1  UNL1        0.0020
      3 C         140.6190  142.1335  164.6191 C.3     1  UNL1        0.0044
      4 C         141.9446  142.0233  165.3123 C.3     1  UNL1        0.0224
      5 C         142.8499  143.0801  164.7522 C.3     1  UNL1        0.0044
      6 C         142.0838  143.8435  163.7128 C.3     1  UNL1        0.0020
      7 C         142.3022  141.0306  166.3785 C.ar    1  UNL1       -0.0194
      8 C         142.8593  139.6905  165.9991 C.ar    1  UNL1        0.0164
      9 C         143.2169  138.6979  167.0652 C.ar    1  UNL1        0.0985
     10 N         143.0174  139.0453  168.5108 N.ar    1  UNL1       -0.2439
     11 C         142.4603  140.3853  168.8901 C.ar    1  UNL1        0.0811
     12 C         142.2609  140.7326  170.3357 C.ar    1  UNL1        0.0214
     13 C         141.7038  142.0727  170.7150 C.ar    1  UNL1        0.0312
     14 C         141.3462  143.0654  169.6489 C.ar    1  UNL1        0.1402
     15 F         140.7891  144.4054  170.0282 F       1  UNL1       -0.2042
     16 C         141.5456  142.7180  168.2033 C.ar    1  UNL1        0.0308
     17 C         142.1028  141.3779  167.8240 C.ar    1  UNL1        0.0160
     18 C         139.6882  146.4514  161.9513 C.3     1  UNL1        0.0213
     19 C         140.7272  145.4034  161.6822 C.3     1  UNL1        0.0719
     20 N         141.4085  145.3482  160.3471 N.am    1  UNL1       -0.3025
     21 C         140.7558  144.6337  159.2009 C.2     1  UNL1        0.2458
     22 O         139.4218  143.9745  159.3900 O.2     1  UNL1       -0.2701
     23 H         142.2841  145.7808  160.2230 H       1  UNL1        0.1497
     24 C         141.4372  144.5785  157.8658 C.ar    1  UNL1        0.0534
     25 C         141.2197  145.6760  156.8668 C.ar    1  UNL1        0.0054
     26 C         141.9011  145.6208  155.5316 C.ar    1  UNL1        0.0115
     27 C         142.7999  144.4680  155.1954 C.ar    1  UNL1        0.0577
     28 CL        143.4813  144.4128  153.8602 Cl      1  UNL1       -0.0822
     29 C         143.0174  143.3704  156.1944 C.ar    1  UNL1        0.0115
     30 C         142.3361  143.4256  157.5296 C.ar    1  UNL1        0.0054
@<TRIPOS>BOND
     1    18    19    1
     2    19    20    1
     3    20    21   am
     4    21    22    2
     5    21    24    1
     6    24    25   ar
     7    25    26   ar
     8    26    27   ar
     9    27    28    1
    10    27    29   ar
    11    29    30   ar
    12     1    19    1
    13     1     2    1
    14     2     3    1
    15     3     4    1
    16     4     7    1
    17     7     8   ar
    18     8     9   ar
    19     9    10   ar
    20    10    11   ar
    21    11    12   ar
    22    12    13   ar
    23    13    14   ar
    24    14    15    1
    25    14    16   ar
    26    16    17   ar
    27     4     5    1
    28     6     5    1
    29    30    24   ar
    30     6     1    1
    31     6     2    1
    32    17     7   ar
    33    17    11   ar
    34    20    23    1
@<TRIPOS>MOLECULE
*****
 30 34 0 0 0
SMALL
GASTEIGER

@<TRIPOS>ATOM
      1 C         142.2236  139.0151  160.9783 C.3     1  UNL1        0.0180
      2 C         141.9550  138.4155  162.3268 C.3     1  UNL1        0.0020
      3 C         141.4843  138.0540  163.7044 C.3     1  UNL1        0.0044
      4 C         140.4616  139.0671  164.1256 C.3     1  UNL1        0.0224
      5 C         140.3001  140.0549  163.0083 C.3     1  UNL1        0.0044
      6 C         141.2231  139.6522  161.8965 C.3     1  UNL1        0.0020
      7 C         139.7288  139.0888  165.4343 C.ar    1  UNL1       -0.0194
      8 C         138.4593  138.3065  165.5961 C.ar    1  UNL1        0.0164
      9 C         137.7267  138.3282  166.9048 C.ar    1  UNL1        0.0985
     10 N         138.2635  139.1323  168.0516 N.ar    1  UNL1       -0.2439
     11 C         139.5330  139.9146  167.8898 C.ar    1  UNL1        0.0811
     12 C         140.0698  140.7187  169.0367 C.ar    1  UNL1        0.0214
     13 C         141.3393  141.5011  168.8748 C.ar    1  UNL1        0.0312
     14 C         142.0720  141.4794  167.5661 C.ar    1  UNL1        0.1402
     15 F         143.3415  142.2618  167.4043 F       1  UNL1       -0.2042
     16 C         141.5352  140.6753  166.4193 C.ar    1  UNL1        0.0308
     17 C         140.2656  139.8929  166.5811 C.ar    1  UNL1        0.0160
     18 C         143.6395  140.2327  159.1720 C.3     1  UNL1        0.0213
     19 C         142.9563  138.9934  159.6696 C.3     1  UNL1        0.0719
     20 N         143.0058  137.7326  158.8586 N.am    1  UNL1       -0.3025
     21 C         142.2051  137.6217  157.5949 C.2     1  UNL1        0.2458
     22 O         141.3549  138.7717  157.1425 O.2     1  UNL1       -0.2701
     23 H         143.5638  136.9778  159.1556 H       1  UNL1        0.1497
     24 C         142.2546  136.3609  156.7839 C.ar    1  UNL1        0.0534
     25 C         143.3477  135.3608  157.0183 C.ar    1  UNL1        0.0054
     26 C         143.3972  134.1000  156.2072 C.ar    1  UNL1        0.0115
     27 C         142.3537  133.8392  155.1617 C.ar    1  UNL1        0.0577
     28 CL        142.4032  132.5784  154.3507 Cl      1  UNL1       -0.0822
     29 C         141.2605  134.8393  154.9273 C.ar    1  UNL1        0.0115
     30 C         141.2110  136.1002  155.7384 C.ar    1  UNL1        0.0054
@<TRIPOS>BOND
     1    18    19    1
     2    19    20    1
     3    20    21   am
     4    21    22    2
     5    21    24    1
     6    24    25   ar
     7    25    26   ar
     8    26    27   ar
     9    27    28    1
    10    27    29   ar
    11    29    30   ar
    12     1    19    1
    13     1     2    1
    14     2     3    1
    15     3     4    1
    16     4     7    1
    17     7     8   ar
    18     8     9   ar
    19     9    10   ar
    20    10    11   ar
    21    11    12   ar
    22    12    13   ar
    23    13    14   ar
    24    14    15    1
    25    14    16   ar
    26    16    17   ar
    27     4     5    1
    28     6     5    1
    29    30    24   ar
    30     6     1    1
    31     6     2    1
    32    17     7   ar
    33    17    11   ar
    34    20    23    1
@<TRIPOS>MOLECULE
*****
 30 34 0 0 0
SMALL
GASTEIGER

@<TRIPOS>ATOM
      1 C         142.2219  137.7517  157.3426 C.3     1  UNL1        0.0180
      2 C         143.0627  136.7782  156.5709 C.3     1  UNL1        0.0020
      3 C         143.6269  135.6836  155.7144 C.3     1  UNL1        0.0044
      4 C         142.4799  134.9007  155.1476 C.3     1  UNL1        0.0224
      5 C         141.2067  135.5114  155.6538 C.3     1  UNL1        0.0044
      6 C         141.5669  136.6718  156.5334 C.3     1  UNL1        0.0020
      7 C         142.5871  133.7151  154.2348 C.ar    1  UNL1       -0.0194
      8 C         141.9282  133.7438  152.8877 C.ar    1  UNL1        0.0164
      9 C         142.0355  132.5583  151.9750 C.ar    1  UNL1        0.0985
     10 N         142.8016  131.3441  152.4095 N.ar    1  UNL1       -0.2439
     11 C         143.4605  131.3155  153.7567 C.ar    1  UNL1        0.0811
     12 C         144.2267  130.1013  154.1912 C.ar    1  UNL1        0.0214
     13 C         144.8856  130.0726  155.5384 C.ar    1  UNL1        0.0312
     14 C         144.7783  131.2582  156.4512 C.ar    1  UNL1        0.1402
     15 F         145.4372  131.2295  157.7984 F       1  UNL1       -0.2042
     16 C         144.0122  132.4723  156.0166 C.ar    1  UNL1        0.0308
     17 C         143.3533  132.5010  154.6694 C.ar    1  UNL1        0.0160
     18 C         142.8240  140.2138  157.9131 C.3     1  UNL1        0.0213
     19 C         142.1146  138.9371  158.2553 C.3     1  UNL1        0.0719
     20 N         141.2980  138.8460  159.5103 N.am    1  UNL1       -0.3025
     21 C         141.8263  138.0942  160.6959 C.2     1  UNL1        0.2458
     22 O         143.1712  137.4335  160.6266 O.2     1  UNL1       -0.2701
     23 H         140.4153  139.2797  159.5558 H       1  UNL1        0.1497
     24 C         141.0097  138.0031  161.9509 C.ar    1  UNL1        0.0534
     25 C         139.5152  138.1109  161.8826 C.ar    1  UNL1        0.0054
     26 C         138.6986  138.0198  163.1376 C.ar    1  UNL1        0.0115
     27 C         139.3765  137.8209  164.4607 C.ar    1  UNL1        0.0577
     28 CL        138.5599  137.7298  165.7157 Cl      1  UNL1       -0.0822
     29 C         140.8712  137.7131  164.5290 C.ar    1  UNL1        0.0115
     30 C         141.6878  137.8042  163.2741 C.ar    1  UNL1        0.0054
@<TRIPOS>BOND
     1    18    19    1
     2    19    20    1
     3    20    21   am
     4    21    22    2
     5    21    24    1
     6    24    25   ar
     7    25    26   ar
     8    26    27   ar
     9    27    28    1
    10    27    29   ar
    11    29    30   ar
    12     1    19    1
    13     1     2    1
    14     2     3    1
    15     3     4    1
    16     4     7    1
    17     7     8   ar
    18     8     9   ar
    19     9    10   ar
    20    10    11   ar
    21    11    12   ar
    22    12    13   ar
    23    13    14   ar
    24    14    15    1
    25    14    16   ar
    26    16    17   ar
    27     4     5    1
    28     6     5    1
    29    30    24   ar
    30     6     1    1
    31     6     2    1
    32    17     7   ar
    33    17    11   ar
    34    20    23    1
@<TRIPOS>MOLECULE
*****
 30 34 0 0 0
SMALL
GASTEIGER

@<TRIPOS>ATOM
      1 C         142.5134  138.0734  158.8276 C.3     1  UNL1        0.0180
      2 C         141.8880  138.7471  160.0130 C.3     1  UNL1        0.0020
      3 C         141.5261  139.3344  161.3449 C.3     1  UNL1        0.0044
      4 C         142.6554  139.0620  162.2939 C.3     1  UNL1        0.0224
      5 C         143.7152  138.3064  161.5484 C.3     1  UNL1        0.0044
      6 C         143.2410  138.1118  160.1387 C.3     1  UNL1        0.0020
      7 C         142.7145  139.4731  163.7353 C.ar    1  UNL1       -0.0194
      8 C         142.2620  138.5239  164.8050 C.ar    1  UNL1        0.0164
      9 C         142.3211  138.9350  166.2463 C.ar    1  UNL1        0.0985
     10 N         142.8326  140.2952  166.6179 N.ar    1  UNL1       -0.2439
     11 C         143.2851  141.2444  165.5482 C.ar    1  UNL1        0.0811
     12 C         143.7966  142.6046  165.9198 C.ar    1  UNL1        0.0214
     13 C         144.2490  143.5538  164.8501 C.ar    1  UNL1        0.0312
     14 C         144.1899  143.1427  163.4087 C.ar    1  UNL1        0.1402
     15 F         144.6424  144.0919  162.3389 F       1  UNL1       -0.2042
     16 C         143.6784  141.7825  163.0371 C.ar    1  UNL1        0.0308
     17 C         143.2260  140.8333  164.1069 C.ar    1  UNL1        0.0160
     18 C         142.3434  138.7045  156.3130 C.3     1  UNL1        0.0213
     19 C         142.4544  137.6624  157.3862 C.3     1  UNL1        0.0719
     20 N         142.5063  136.2092  157.0180 N.am    1  UNL1       -0.3025
     21 C         143.6204  135.6932  156.1562 C.2     1  UNL1        0.2458
     22 O         144.6825  136.6303  155.6627 O.2     1  UNL1       -0.2701
     23 H         141.8092  135.5941  157.3419 H       1  UNL1        0.1497
     24 C         143.6723  134.2400  155.7880 C.ar    1  UNL1        0.0534
     25 C         144.4924  133.2877  156.6068 C.ar    1  UNL1        0.0054
     26 C         144.5443  131.8345  156.2386 C.ar    1  UNL1        0.0115
     27 C         143.7761  131.3337  155.0516 C.ar    1  UNL1        0.0577
     28 CL        143.8280  129.8805  154.6834 Cl      1  UNL1       -0.0822
     29 C         142.9560  132.2860  154.2327 C.ar    1  UNL1        0.0115
     30 C         142.9041  133.7392  154.6009 C.ar    1  UNL1        0.0054
@<TRIPOS>BOND
     1    18    19    1
     2    19    20    1
     3    20    21   am
     4    21    22    2
     5    21    24    1
     6    24    25   ar
     7    25    26   ar
     8    26    27   ar
     9    27    28    1
    10    27    29   ar
    11    29    30   ar
    12     1    19    1
    13     1     2    1
    14     2     3    1
    15     3     4    1
    16     4     7    1
    17     7     8   ar
    18     8     9   ar
    19     9    10   ar
    20    10    11   ar
    21    11    12   ar
    22    12    13   ar
    23    13    14   ar
    24    14    15    1
    25    14    16   ar
    26    16    17   ar
    27     4     5    1
    28     6     5    1
    29    30    24   ar
    30     6     1    1
    31     6     2    1
    32    17     7   ar
    33    17    11   ar
    34    20    23    1
@<TRIPOS>MOLECULE
*****
 30 34 0 0 0
SMALL
GASTEIGER

@<TRIPOS>ATOM
      1 C         140.4341  145.1126  157.7811 C.3     1  UNL1        0.0180
      2 C         140.1151  144.0507  158.7913 C.3     1  UNL1        0.0020
      3 C         139.8299  143.2219  160.0086 C.3     1  UNL1        0.0044
      4 C         139.9250  144.1149  161.2101 C.3     1  UNL1        0.0224
      5 C         140.2689  145.4956  160.7353 C.3     1  UNL1        0.0044
      6 C         140.3864  145.4559  159.2405 C.3     1  UNL1        0.0020
      7 C         139.7132  143.7000  162.6360 C.ar    1  UNL1       -0.0194
      8 C         138.3242  143.6266  163.1974 C.ar    1  UNL1        0.0164
      9 C         138.1126  143.2118  164.6232 C.ar    1  UNL1        0.0985
     10 N         139.2899  142.8704  165.4877 N.ar    1  UNL1       -0.2439
     11 C         140.6790  142.9438  164.9263 C.ar    1  UNL1        0.0811
     12 C         141.8563  142.6024  165.7907 C.ar    1  UNL1        0.0214
     13 C         143.2453  142.6758  165.2293 C.ar    1  UNL1        0.0312
     14 C         143.4570  143.0906  163.8034 C.ar    1  UNL1        0.1402
     15 F         144.8460  143.1640  163.2420 F       1  UNL1       -0.2042
     16 C         142.2797  143.4320  162.9389 C.ar    1  UNL1        0.0308
     17 C         140.8906  143.3586  163.5004 C.ar    1  UNL1        0.0160
     18 C         140.9525  144.4949  155.3113 C.3     1  UNL1        0.0213
     19 C         140.6458  145.5275  156.3552 C.3     1  UNL1        0.0719
     20 N         140.5508  146.9749  155.9733 N.am    1  UNL1       -0.3025
     21 C         139.3081  147.4968  155.3148 C.2     1  UNL1        0.2458
     22 O         138.1606  146.5713  155.0384 O.2     1  UNL1       -0.2701
     23 H         141.3040  147.5823  156.1547 H       1  UNL1        0.1497
     24 C         139.2132  148.9443  154.9329 C.ar    1  UNL1        0.0534
     25 C         138.5155  149.9149  155.8390 C.ar    1  UNL1        0.0054
     26 C         138.4205  151.3623  155.4571 C.ar    1  UNL1        0.0115
     27 C         139.0232  151.8391  154.1689 C.ar    1  UNL1        0.0577
     28 CL        138.9282  153.2866  153.7870 Cl      1  UNL1       -0.0822
     29 C         139.7209  150.8685  153.2627 C.ar    1  UNL1        0.0115
     30 C         139.8159  149.4211  153.6446 C.ar    1  UNL1        0.0054
@<TRIPOS>BOND
     1    18    19    1
     2    19    20    1
     3    20    21   am
     4    21    22    2
     5    21    24    1
     6    24    25   ar
     7    25    26   ar
     8    26    27   ar
     9    27    28    1
    10    27    29   ar
    11    29    30   ar
    12     1    19    1
    13     1     2    1
    14     2     3    1
    15     3     4    1
    16     4     7    1
    17     7     8   ar
    18     8     9   ar
    19     9    10   ar
    20    10    11   ar
    21    11    12   ar
    22    12    13   ar
    23    13    14   ar
    24    14    15    1
    25    14    16   ar
    26    16    17   ar
    27     4     5    1
    28     6     5    1
    29    30    24   ar
    30     6     1    1
    31     6     2    1
    32    17     7   ar
    33    17    11   ar
    34    20    23    1
@<TRIPOS>MOLECULE
*****
 30 34 0 0 0
SMALL
GASTEIGER

@<TRIPOS>ATOM
      1 C         142.0628  138.1240  159.1695 C.3     1  UNL1        0.0180
      2 C         142.1115  137.9402  160.6575 C.3     1  UNL1        0.0020
      3 C         141.8893  137.9144  162.1407 C.3     1  UNL1        0.0044
      4 C         140.6036  138.6311  162.4293 C.3     1  UNL1        0.0224
      5 C         140.0312  139.0999  161.1245 C.3     1  UNL1        0.0044
      6 C         140.9631  138.6729  160.0294 C.3     1  UNL1        0.0020
      7 C         139.9968  138.8419  163.7849 C.ar    1  UNL1       -0.0194
      8 C         139.0693  137.8128  164.3597 C.ar    1  UNL1        0.0164
      9 C         138.4625  138.0237  165.7152 C.ar    1  UNL1        0.0985
     10 N         138.7833  139.2638  166.4958 N.ar    1  UNL1       -0.2439
     11 C         139.7108  140.2929  165.9209 C.ar    1  UNL1        0.0811
     12 C         140.0316  141.5330  166.7015 C.ar    1  UNL1        0.0214
     13 C         140.9591  142.5621  166.1267 C.ar    1  UNL1        0.0312
     14 C         141.5660  142.3512  164.7712 C.ar    1  UNL1        0.1402
     15 F         142.4935  143.3804  164.1963 F       1  UNL1       -0.2042
     16 C         141.2452  141.1112  163.9906 C.ar    1  UNL1        0.0308
     17 C         140.3176  140.0820  164.5655 C.ar    1  UNL1        0.0160
     18 C         142.7102  139.0417  156.8267 C.3     1  UNL1        0.0213
     19 C         142.6695  137.9131  157.8140 C.3     1  UNL1        0.0719
     20 N         143.2357  136.5738  157.4458 N.am    1  UNL1       -0.3025
     21 C         142.4566  135.6483  156.5589 C.2     1  UNL1        0.2458
     22 O         141.1113  136.0622  156.0403 O.2     1  UNL1       -0.2701
     23 H         144.1186  136.3021  157.7862 H       1  UNL1        0.1497
     24 C         143.0227  134.3089  156.1907 C.ar    1  UNL1        0.0534
     25 C         142.5984  133.6398  154.9171 C.ar    1  UNL1        0.0054
     26 C         143.1646  132.3004  154.5489 C.ar    1  UNL1        0.0115
     27 C         144.1550  131.6302  155.4543 C.ar    1  UNL1        0.0577
     28 CL        144.7211  130.2908  155.0861 Cl      1  UNL1       -0.0822
     29 C         144.5793  132.2994  156.7280 C.ar    1  UNL1        0.0115
     30 C         144.0132  133.6387  157.0963 C.ar    1  UNL1        0.0054
@<TRIPOS>BOND
     1    18    19    1
     2    19    20    1
     3    20    21   am
     4    21    22    2
     5    21    24    1
     6    24    25   ar
     7    25    26   ar
     8    26    27   ar
     9    27    28    1
    10    27    29   ar
    11    29    30   ar
    12     1    19    1
    13     1     2    1
    14     2     3    1
    15     3     4    1
    16     4     7    1
    17     7     8   ar
    18     8     9   ar
    19     9    10   ar
    20    10    11   ar
    21    11    12   ar
    22    12    13   ar
    23    13    14   ar
    24    14    15    1
    25    14    16   ar
    26    16    17   ar
    27     4     5    1
    28     6     5    1
    29    30    24   ar
    30     6     1    1
    31     6     2    1
    32    17     7   ar
    33    17    11   ar
    34    20    23    1
@<TRIPOS>MOLECULE
*****
 30 34 0 0 0
SMALL
GASTEIGER

@<TRIPOS>ATOM
      1 C         141.7269  138.3812  158.0240 C.3     1  UNL1        0.0180
      2 C         141.7067  139.2253  159.2638 C.3     1  UNL1        0.0020
      3 C         141.3764  140.0238  160.4899 C.3     1  UNL1        0.0044
      4 C         139.8895  139.9826  160.6833 C.3     1  UNL1        0.0224
      5 C         139.3008  139.1585  159.5768 C.3     1  UNL1        0.0044
      6 C         140.4238  138.6905  158.6995 C.3     1  UNL1        0.0020
      7 C         139.1254  140.6485  161.7892 C.ar    1  UNL1       -0.0194
      8 C         138.4394  141.9595  161.5430 C.ar    1  UNL1        0.0164
      9 C         137.6754  142.6254  162.6489 C.ar    1  UNL1        0.0985
     10 N         137.5974  141.9802  164.0008 N.ar    1  UNL1       -0.2439
     11 C         138.2834  140.6692  164.2469 C.ar    1  UNL1        0.0811
     12 C         138.2054  140.0241  165.5988 C.ar    1  UNL1        0.0214
     13 C         138.8914  138.7131  165.8449 C.ar    1  UNL1        0.0312
     14 C         139.6555  138.0472  164.7391 C.ar    1  UNL1        0.1402
     15 F         140.3415  136.7362  164.9852 F       1  UNL1       -0.2042
     16 C         139.7335  138.6923  163.3872 C.ar    1  UNL1        0.0308
     17 C         139.0474  140.0034  163.1411 C.ar    1  UNL1        0.0160
     18 C         142.7020  138.4299  155.6163 C.3     1  UNL1        0.0213
     19 C         142.4909  137.7153  156.9182 C.3     1  UNL1        0.0719
     20 N         143.0438  136.3347  157.1142 N.am    1  UNL1       -0.3025
     21 C         142.3776  135.1602  156.4608 C.2     1  UNL1        0.2458
     22 O         141.1585  135.3663  155.6115 O.2     1  UNL1       -0.2701
     23 H         143.8439  136.1995  157.6716 H       1  UNL1        0.1497
     24 C         142.9305  133.7797  156.6568 C.ar    1  UNL1        0.0534
     25 C         144.1335  133.5703  157.5279 C.ar    1  UNL1        0.0054
     26 C         144.6864  132.1897  157.7239 C.ar    1  UNL1        0.0115
     27 C         144.0363  131.0186  157.0488 C.ar    1  UNL1        0.0577
     28 CL        144.5892  129.6381  157.2447 Cl      1  UNL1       -0.0822
     29 C         142.8332  131.2280  156.1776 C.ar    1  UNL1        0.0115
     30 C         142.2803  132.6085  155.9816 C.ar    1  UNL1        0.0054
@<TRIPOS>BOND
     1    18    19    1
     2    19    20    1
     3    20    21   am
     4    21    22    2
     5    21    24    1
     6    24    25   ar
     7    25    26   ar
     8    26    27   ar
     9    27    28    1
    10    27    29   ar
    11    29    30   ar
    12     1    19    1
    13     1     2    1
    14     2     3    1
    15     3     4    1
    16     4     7    1
    17     7     8   ar
    18     8     9   ar
    19     9    10   ar
    20    10    11   ar
    21    11    12   ar
    22    12    13   ar
    23    13    14   ar
    24    14    15    1
    25    14    16   ar
    26    16    17   ar
    27     4     5    1
    28     6     5    1
    29    30    24   ar
    30     6     1    1
    31     6     2    1
    32    17     7   ar
    33    17    11   ar
    34    20    23    1
@<TRIPOS>MOLECULE
*****
 30 34 0 0 0
SMALL
GASTEIGER

@<TRIPOS>ATOM
      1 C         137.6640  142.6594  156.4572 C.3     1  UNL1        0.0180
      2 C         138.2957  142.1846  157.7322 C.3     1  UNL1        0.0020
      3 C         139.1076  141.9643  158.9741 C.3     1  UNL1        0.0044
      4 C         140.1017  143.0824  159.0824 C.3     1  UNL1        0.0224
      5 C         139.9041  143.9937  157.9074 C.3     1  UNL1        0.0044
      6 C         138.7880  143.4388  157.0729 C.3     1  UNL1        0.0020
      7 C         141.1154  143.2584  160.1740 C.ar    1  UNL1       -0.0194
      8 C         142.5662  142.9944  159.8998 C.ar    1  UNL1        0.0164
      9 C         143.5798  143.1703  160.9914 C.ar    1  UNL1        0.0985
     10 N         143.1426  143.6103  162.3572 N.ar    1  UNL1       -0.2439
     11 C         141.6917  143.8743  162.6313 C.ar    1  UNL1        0.0811
     12 C         141.2544  144.3142  163.9970 C.ar    1  UNL1        0.0214
     13 C         139.8035  144.5782  164.2712 C.ar    1  UNL1        0.0312
     14 C         138.7898  144.4023  163.1796 C.ar    1  UNL1        0.1402
     15 F         137.3389  144.6663  163.4537 F       1  UNL1       -0.2042
     16 C         139.2271  143.9623  161.8138 C.ar    1  UNL1        0.0308
     17 C         140.6781  143.6983  161.5397 C.ar    1  UNL1        0.0160
     18 C         137.0508  142.6736  153.9325 C.3     1  UNL1        0.0213
     19 C         136.6504  142.4835  155.3656 C.3     1  UNL1        0.0719
     20 N         135.2364  142.1174  155.7070 N.am    1  UNL1       -0.3025
     21 C         134.8542  140.6766  155.8748 C.2     1  UNL1        0.2458
     22 O         135.8861  139.6019  155.7011 O.2     1  UNL1       -0.2701
     23 H         134.5591  142.8228  155.8210 H       1  UNL1        0.1497
     24 C         133.4402  140.3105  156.2162 C.ar    1  UNL1        0.0534
     25 C         132.3033  141.1296  155.6808 C.ar    1  UNL1        0.0054
     26 C         130.8893  140.7635  156.0222 C.ar    1  UNL1        0.0115
     27 C         130.6122  139.5785  156.8990 C.ar    1  UNL1        0.0577
     28 CL        129.1982  139.2124  157.2404 Cl      1  UNL1       -0.0822
     29 C         131.7491  138.7594  157.4344 C.ar    1  UNL1        0.0115
     30 C         133.1631  139.1254  157.0930 C.ar    1  UNL1        0.0054
@<TRIPOS>BOND
     1    18    19    1
     2    19    20    1
     3    20    21   am
     4    21    22    2
     5    21    24    1
     6    24    25   ar
     7    25    26   ar
     8    26    27   ar
     9    27    28    1
    10    27    29   ar
    11    29    30   ar
    12     1    19    1
    13     1     2    1
    14     2     3    1
    15     3     4    1
    16     4     7    1
    17     7     8   ar
    18     8     9   ar
    19     9    10   ar
    20    10    11   ar
    21    11    12   ar
    22    12    13   ar
    23    13    14   ar
    24    14    15    1
    25    14    16   ar
    26    16    17   ar
    27     4     5    1
    28     6     5    1
    29    30    24   ar
    30     6     1    1
    31     6     2    1
    32    17     7   ar
    33    17    11   ar
    34    20    23    1
@<TRIPOS>MOLECULE
*****
 30 34 0 0 0
SMALL
GASTEIGER

@<TRIPOS>ATOM
      1 C         138.1686  140.9771  156.9920 C.3     1  UNL1        0.0180
      2 C         139.1996  140.0026  157.4794 C.3     1  UNL1        0.0020
      3 C         140.2771  139.2408  158.1925 C.3     1  UNL1        0.0044
      4 C         140.7153  140.0541  159.3742 C.3     1  UNL1        0.0224
      5 C         139.9086  141.3186  159.3914 C.3     1  UNL1        0.0044
      6 C         138.9718  141.2868  158.2204 C.3     1  UNL1        0.0020
      7 C         141.7743  139.6703  160.3648 C.ar    1  UNL1       -0.0194
      8 C         143.1963  140.0939  160.1445 C.ar    1  UNL1        0.0164
      9 C         144.2552  139.7102  161.1351 C.ar    1  UNL1        0.0985
     10 N         143.8922  138.9027  162.3460 N.ar    1  UNL1       -0.2439
     11 C         142.4703  138.4790  162.5663 C.ar    1  UNL1        0.0811
     12 C         142.1073  137.6716  163.7771 C.ar    1  UNL1        0.0214
     13 C         140.6854  137.2479  163.9974 C.ar    1  UNL1        0.0312
     14 C         139.6263  137.6317  163.0068 C.ar    1  UNL1        0.1402
     15 F         138.2044  137.2080  163.2271 F       1  UNL1       -0.2042
     16 C         139.9893  138.4392  161.7959 C.ar    1  UNL1        0.0308
     17 C         141.4114  138.8628  161.5757 C.ar    1  UNL1        0.0160
     18 C         137.4999  141.8579  154.6410 C.3     1  UNL1        0.0213
     19 C         137.1096  141.3610  156.0015 C.3     1  UNL1        0.0719
     20 N         135.6603  141.2478  156.3713 N.am    1  UNL1       -0.3025
     21 C         134.8652  140.0540  155.9322 C.2     1  UNL1        0.2458
     22 O         135.5194  138.9735  155.1232 O.2     1  UNL1       -0.2701
     23 H         135.2309  141.9570  156.9023 H       1  UNL1        0.1497
     24 C         133.4159  139.9409  156.3020 C.ar    1  UNL1        0.0534
     25 C         132.4209  140.9139  155.7424 C.ar    1  UNL1        0.0054
     26 C         130.9716  140.8008  156.1122 C.ar    1  UNL1        0.0115
     27 C         130.5173  139.7146  157.0417 C.ar    1  UNL1        0.0577
     28 CL        129.0680  139.6015  157.4115 Cl      1  UNL1       -0.0822
     29 C         131.5124  138.7416  157.6013 C.ar    1  UNL1        0.0115
     30 C         132.9616  138.8547  157.2315 C.ar    1  UNL1        0.0054
@<TRIPOS>BOND
     1    18    19    1
     2    19    20    1
     3    20    21   am
     4    21    22    2
     5    21    24    1
     6    24    25   ar
     7    25    26   ar
     8    26    27   ar
     9    27    28    1
    10    27    29   ar
    11    29    30   ar
    12     1    19    1
    13     1     2    1
    14     2     3    1
    15     3     4    1
    16     4     7    1
    17     7     8   ar
    18     8     9   ar
    19     9    10   ar
    20    10    11   ar
    21    11    12   ar
    22    12    13   ar
    23    13    14   ar
    24    14    15    1
    25    14    16   ar
    26    16    17   ar
    27     4     5    1
    28     6     5    1
    29    30    24   ar
    30     6     1    1
    31     6     2    1
    32    17     7   ar
    33    17    11   ar
    34    20    23    1
