@<TRIPOS>MOLECULE
*****
 24 25 0 0 0
SMALL
GASTEIGER

@<TRIPOS>ATOM
      1 N         140.7843  144.7480  161.4820 N.3     1  UNL1       -0.1505
      2 C         139.5976  145.2717  162.2353 C.3     1  UNL1        0.1218
      3 C         139.6463  144.7103  163.6254 C.ar    1  UNL1       -0.0071
      4 C         138.7399  144.8794  164.8085 C.ar    1  UNL1       -0.0031
      5 C         139.0502  144.1779  166.0975 C.ar    1  UNL1       -0.0003
      6 C         140.2671  143.3072  166.2033 C.ar    1  UNL1       -0.0001
      7 C         141.1735  143.1381  165.0203 C.ar    1  UNL1       -0.0031
      8 C         140.8631  143.8396  163.7313 C.ar    1  UNL1       -0.0071
      9 C         141.5665  143.8629  162.4066 C.3     1  UNL1        0.1218
     10 S         141.1285  145.0554  160.0548 S.O2    1  UNL1        0.0444
     11 O         139.7865  145.6996  159.8699 O.2     1  UNL1       -0.1573
     12 O         142.4704  144.4111  160.2396 O.2     1  UNL1       -0.1573
     13 C         141.4726  145.3628  158.6275 C.3     1  UNL1        0.1691
     14 C         140.3805  145.5566  157.6177 C.3     1  UNL1        0.0270
     15 C         139.6409  147.1304  155.6874 C.3     1  UNL1        0.0001
     16 C         140.6746  146.2448  156.3177 C.3     1  UNL1        0.0019
     17 C         140.5774  142.6057  167.4924 C.2     1  UNL1        0.0047
     18 C         140.2850  143.2775  168.8012 C.2     1  UNL1        0.0598
     19 C         140.5954  142.5760  170.0903 C.2     1  UNL1        0.2679
     20 O         139.6304  141.5729  170.6494 O.2     1  UNL1       -0.2681
     21 N         141.8707  142.8775  170.8201 N.am    1  UNL1       -0.1934
     22 O         142.1810  142.1759  172.1090 O.3     1  UNL1       -0.2949
     23 H         142.5040  143.5358  170.4531 H       1  UNL1        0.1825
     24 H         141.4593  141.5655  172.3268 H       1  UNL1        0.2414
@<TRIPOS>BOND
     1    15    16    1
     2    16    14    1
     3    14    13    1
     4    13    10    1
     5    10    11    2
     6    10    12    2
     7    10     1    1
     8     1     2    1
     9     2     3    1
    10     3     4   ar
    11     4     5   ar
    12     5     6   ar
    13     6    17    1
    14    17    18    2
    15    18    19    1
    16    19    20    2
    17    19    21   am
    18    21    22    1
    19     6     7   ar
    20     7     8   ar
    21     8     9    1
    22     9     1    1
    23     8     3   ar
    24    21    23    1
    25    22    24    1
@<TRIPOS>MOLECULE
*****
 24 25 0 0 0
SMALL
GASTEIGER

@<TRIPOS>ATOM
      1 N         138.3461  140.4326  161.1181 N.3     1  UNL1       -0.1505
      2 C         138.6690  138.9996  161.4218 C.3     1  UNL1        0.1218
      3 C         138.6590  138.8278  162.9119 C.ar    1  UNL1       -0.0071
      4 C         138.9070  137.6346  163.7864 C.ar    1  UNL1       -0.0031
      5 C         138.8259  137.7683  165.2782 C.ar    1  UNL1       -0.0003
      6 C         138.4968  139.0952  165.8955 C.ar    1  UNL1       -0.0001
      7 C         138.2487  140.2884  165.0210 C.ar    1  UNL1       -0.0031
      8 C         138.3299  140.1547  163.5292 C.ar    1  UNL1       -0.0071
      9 C         138.1365  141.1464  162.4206 C.3     1  UNL1        0.1218
     10 S         138.2497  141.0443  159.7519 S.O2    1  UNL1        0.0444
     11 O         138.2109  139.6747  159.1414 O.2     1  UNL1       -0.1573
     12 O         138.2886  142.4139  160.3624 O.2     1  UNL1       -0.1573
     13 C         138.1534  141.6560  158.3857 C.3     1  UNL1        0.1691
     14 C         137.3053  141.0078  157.3319 C.3     1  UNL1        0.0270
     15 C         137.1264  143.2695  156.0657 C.3     1  UNL1        0.0001
     16 C         136.7136  141.8368  156.2307 C.3     1  UNL1        0.0019
     17 C         138.4157  139.2288  167.3874 C.2     1  UNL1        0.0047
     18 C         139.4612  140.0082  168.1285 C.2     1  UNL1        0.0598
     19 C         139.3802  140.1419  169.6204 C.2     1  UNL1        0.2679
     20 O         138.0601  139.9899  170.3163 O.2     1  UNL1       -0.2681
     21 N         140.6191  140.4274  170.4162 N.am    1  UNL1       -0.1934
     22 O         140.5379  140.5611  171.9080 O.3     1  UNL1       -0.2949
     23 H         141.4855  140.5271  169.9595 H       1  UNL1        0.1825
     24 H         139.6197  140.4359  172.1944 H       1  UNL1        0.2414
@<TRIPOS>BOND
     1    15    16    1
     2    16    14    1
     3    14    13    1
     4    13    10    1
     5    10    11    2
     6    10    12    2
     7    10     1    1
     8     1     2    1
     9     2     3    1
    10     3     4   ar
    11     4     5   ar
    12     5     6   ar
    13     6    17    1
    14    17    18    2
    15    18    19    1
    16    19    20    2
    17    19    21   am
    18    21    22    1
    19     6     7   ar
    20     7     8   ar
    21     8     9    1
    22     9     1    1
    23     8     3   ar
    24    21    23    1
    25    22    24    1
@<TRIPOS>MOLECULE
*****
 24 25 0 0 0
SMALL
GASTEIGER

@<TRIPOS>ATOM
      1 N         141.1963  144.2665  162.5793 N.3     1  UNL1       -0.1505
      2 C         142.6297  144.1838  163.0137 C.3     1  UNL1        0.1218
      3 C         142.6679  143.5324  164.3643 C.ar    1  UNL1       -0.0071
      4 C         143.8042  143.1892  165.2813 C.ar    1  UNL1       -0.0031
      5 C         143.5308  142.5261  166.5987 C.ar    1  UNL1       -0.0003
      6 C         142.1211  142.2063  166.9991 C.ar    1  UNL1       -0.0001
      7 C         140.9847  142.5495  166.0821 C.ar    1  UNL1       -0.0031
      8 C         141.2581  143.2125  164.7647 C.ar    1  UNL1       -0.0071
      9 C         140.3487  143.6662  163.6615 C.3     1  UNL1        0.1218
     10 S         140.6981  144.8475  161.2893 S.O2    1  UNL1        0.0444
     11 O         142.0763  144.7376  160.7075 O.2     1  UNL1       -0.1573
     12 O         139.3199  144.9575  161.8710 O.2     1  UNL1       -0.1573
     13 C         140.1999  145.4285  159.9992 C.3     1  UNL1        0.1691
     14 C         141.1130  145.5121  158.8122 C.3     1  UNL1        0.0270
     15 C         139.8421  146.4727  156.7598 C.3     1  UNL1        0.0001
     16 C         140.5616  145.3387  157.4280 C.3     1  UNL1        0.0019
     17 C         141.8477  141.5432  168.3166 C.2     1  UNL1        0.0047
     18 C         140.5799  141.8449  169.0593 C.2     1  UNL1        0.0598
     19 C         140.3066  141.1818  170.3768 C.2     1  UNL1        0.2679
     20 O         140.4869  141.9479  171.6537 O.2     1  UNL1       -0.2681
     21 N         139.8529  139.7526  170.4172 N.am    1  UNL1       -0.1934
     22 O         139.5795  139.0896  171.7346 O.3     1  UNL1       -0.2949
     23 H         139.7345  139.2498  169.5791 H       1  UNL1        0.1825
     24 H         139.7438  139.7194  172.4538 H       1  UNL1        0.2414
@<TRIPOS>BOND
     1    15    16    1
     2    16    14    1
     3    14    13    1
     4    13    10    1
     5    10    11    2
     6    10    12    2
     7    10     1    1
     8     1     2    1
     9     2     3    1
    10     3     4   ar
    11     4     5   ar
    12     5     6   ar
    13     6    17    1
    14    17    18    2
    15    18    19    1
    16    19    20    2
    17    19    21   am
    18    21    22    1
    19     6     7   ar
    20     7     8   ar
    21     8     9    1
    22     9     1    1
    23     8     3   ar
    24    21    23    1
    25    22    24    1
@<TRIPOS>MOLECULE
*****
 24 25 0 0 0
SMALL
GASTEIGER

@<TRIPOS>ATOM
      1 N         138.9111  141.3328  161.4773 N.3     1  UNL1       -0.1505
      2 C         138.9119  139.8369  161.5869 C.3     1  UNL1        0.1218
      3 C         138.8571  139.4787  163.0425 C.ar    1  UNL1       -0.0071
      4 C         138.8343  138.1566  163.7507 C.ar    1  UNL1       -0.0031
      5 C         138.7769  138.1092  165.2488 C.ar    1  UNL1       -0.0003
      6 C         138.7421  139.3839  166.0388 C.ar    1  UNL1       -0.0001
      7 C         138.7649  140.7059  165.3306 C.ar    1  UNL1       -0.0031
      8 C         138.8224  140.7534  163.8325 C.ar    1  UNL1       -0.0071
      9 C         138.8557  141.8992  162.8651 C.3     1  UNL1        0.1218
     10 S         138.9574  142.1235  160.2034 S.O2    1  UNL1        0.0444
     11 O         138.0023  143.1215  160.7882 O.2     1  UNL1       -0.1573
     12 O         139.9124  141.1256  159.6187 O.2     1  UNL1       -0.1573
     13 C         139.0037  142.9142  158.9296 C.3     1  UNL1        0.1691
     14 C         140.2612  143.6319  158.5377 C.3     1  UNL1        0.0270
     15 C         141.1330  145.9187  157.6654 C.3     1  UNL1        0.0001
     16 C         140.3432  145.1244  158.6631 C.3     1  UNL1        0.0019
     17 C         138.6847  139.3364  167.5370 C.2     1  UNL1        0.0047
     18 C         139.5163  140.2838  168.3498 C.2     1  UNL1        0.0598
     19 C         139.4588  140.2363  169.8480 C.2     1  UNL1        0.2679
     20 O         138.1641  139.9268  170.5394 O.2     1  UNL1       -0.2681
     21 N         140.6960  140.4983  170.6547 N.am    1  UNL1       -0.1934
     22 O         140.6384  140.4508  172.1528 O.3     1  UNL1       -0.2949
     23 H         141.5457  140.7014  170.2009 H       1  UNL1        0.1825
     24 H         139.7348  140.2394  172.4352 H       1  UNL1        0.2414
@<TRIPOS>BOND
     1    15    16    1
     2    16    14    1
     3    14    13    1
     4    13    10    1
     5    10    11    2
     6    10    12    2
     7    10     1    1
     8     1     2    1
     9     2     3    1
    10     3     4   ar
    11     4     5   ar
    12     5     6   ar
    13     6    17    1
    14    17    18    2
    15    18    19    1
    16    19    20    2
    17    19    21   am
    18    21    22    1
    19     6     7   ar
    20     7     8   ar
    21     8     9    1
    22     9     1    1
    23     8     3   ar
    24    21    23    1
    25    22    24    1
@<TRIPOS>MOLECULE
*****
 24 25 0 0 0
SMALL
GASTEIGER

@<TRIPOS>ATOM
      1 N         141.3936  144.3282  161.5007 N.3     1  UNL1       -0.1505
      2 C         142.8386  144.0623  161.8027 C.3     1  UNL1        0.1218
      3 C         142.9303  143.5394  163.2056 C.ar    1  UNL1       -0.0071
      4 C         144.0987  143.1079  164.0415 C.ar    1  UNL1       -0.0031
      5 C         143.8787  142.6193  165.4425 C.ar    1  UNL1       -0.0003
      6 C         142.4903  142.5620  166.0075 C.ar    1  UNL1       -0.0001
      7 C         141.3220  142.9934  165.1716 C.ar    1  UNL1       -0.0031
      8 C         141.5420  143.4821  163.7706 C.ar    1  UNL1       -0.0071
      9 C         140.5923  143.9696  162.7169 C.3     1  UNL1        0.1218
     10 S         140.8461  144.8595  160.2092 S.O2    1  UNL1        0.0444
     11 O         139.4531  144.7499  160.7547 O.2     1  UNL1       -0.1573
     12 O         142.2391  144.9690  159.6636 O.2     1  UNL1       -0.1573
     13 C         140.2985  145.3907  158.9176 C.3     1  UNL1        0.1691
     14 C         139.9642  144.4474  157.8003 C.3     1  UNL1        0.0270
     15 C         141.4927  145.7081  156.1197 C.3     1  UNL1        0.0001
     16 C         140.3322  144.7964  156.3887 C.3     1  UNL1        0.0019
     17 C         142.2704  142.0733  167.4086 C.2     1  UNL1        0.0047
     18 C         143.2962  142.3471  168.4681 C.2     1  UNL1        0.0598
     19 C         143.0762  141.8583  169.8692 C.2     1  UNL1        0.2679
     20 O         143.5022  140.4730  170.2558 O.2     1  UNL1       -0.2681
     21 N         142.4303  142.7549  170.8835 N.am    1  UNL1       -0.1934
     22 O         142.2104  142.2662  172.2845 O.3     1  UNL1       -0.2949
     23 H         142.1508  143.6641  170.6298 H       1  UNL1        0.1825
     24 H         142.5403  141.3576  172.3655 H       1  UNL1        0.2414
@<TRIPOS>BOND
     1    15    16    1
     2    16    14    1
     3    14    13    1
     4    13    10    1
     5    10    11    2
     6    10    12    2
     7    10     1    1
     8     1     2    1
     9     2     3    1
    10     3     4   ar
    11     4     5   ar
    12     5     6   ar
    13     6    17    1
    14    17    18    2
    15    18    19    1
    16    19    20    2
    17    19    21   am
    18    21    22    1
    19     6     7   ar
    20     7     8   ar
    21     8     9    1
    22     9     1    1
    23     8     3   ar
    24    21    23    1
    25    22    24    1
@<TRIPOS>MOLECULE
*****
 24 25 0 0 0
SMALL
GASTEIGER

@<TRIPOS>ATOM
      1 N         138.4774  140.2297  162.8424 N.3     1  UNL1       -0.1505
      2 C         138.2805  139.2200  163.9341 C.3     1  UNL1        0.1218
      3 C         138.8396  139.7936  165.2023 C.ar    1  UNL1       -0.0071
      4 C         138.9249  139.2500  166.5977 C.ar    1  UNL1       -0.0031
      5 C         139.5526  140.0705  167.6852 C.ar    1  UNL1       -0.0003
      6 C         140.0950  141.4347  167.3773 C.ar    1  UNL1       -0.0001
      7 C         140.0097  141.9783  165.9819 C.ar    1  UNL1       -0.0031
      8 C         139.3820  141.1578  164.8944 C.ar    1  UNL1       -0.0071
      9 C         139.1582  141.4273  163.4359 C.3     1  UNL1        0.1218
     10 S         138.0657  140.0698  161.4088 S.O2    1  UNL1        0.0444
     11 O         137.4301  141.4281  161.4399 O.2     1  UNL1       -0.1573
     12 O         138.7013  138.7115  161.3778 O.2     1  UNL1       -0.1573
     13 C         137.6541  139.9100  159.9753 C.3     1  UNL1        0.1691
     14 C         138.5172  140.4642  158.8809 C.3     1  UNL1        0.0270
     15 C         140.0536  138.4926  158.1721 C.3     1  UNL1        0.0001
     16 C         139.0554  139.5544  157.8166 C.3     1  UNL1        0.0019
     17 C         140.7227  142.2552  168.4649 C.2     1  UNL1        0.0047
     18 C         141.4264  141.5785  169.6037 C.2     1  UNL1        0.0598
     19 C         142.0541  142.3991  170.6913 C.2     1  UNL1        0.2679
     20 O         141.5923  142.2431  172.1099 O.2     1  UNL1       -0.2681
     21 N         143.1436  143.3755  170.3603 N.am    1  UNL1       -0.1934
     22 O         143.7712  144.1959  171.4478 O.3     1  UNL1       -0.2949
     23 H         143.4467  143.4778  169.4292 H       1  UNL1        0.1825
     24 H         143.3604  143.9742  172.2981 H       1  UNL1        0.2414
@<TRIPOS>BOND
     1    15    16    1
     2    16    14    1
     3    14    13    1
     4    13    10    1
     5    10    11    2
     6    10    12    2
     7    10     1    1
     8     1     2    1
     9     2     3    1
    10     3     4   ar
    11     4     5   ar
    12     5     6   ar
    13     6    17    1
    14    17    18    2
    15    18    19    1
    16    19    20    2
    17    19    21   am
    18    21    22    1
    19     6     7   ar
    20     7     8   ar
    21     8     9    1
    22     9     1    1
    23     8     3   ar
    24    21    23    1
    25    22    24    1
@<TRIPOS>MOLECULE
*****
 24 25 0 0 0
SMALL
GASTEIGER

@<TRIPOS>ATOM
      1 N         138.7381  141.4594  162.1485 N.3     1  UNL1       -0.1505
      2 C         138.3486  140.0989  162.6456 C.3     1  UNL1        0.1218
      3 C         138.6526  140.0370  164.1132 C.ar    1  UNL1       -0.0071
      4 C         138.4782  138.9474  165.1293 C.ar    1  UNL1       -0.0031
      5 C         138.8812  139.1802  166.5552 C.ar    1  UNL1       -0.0003
      6 C         139.4586  140.5026  166.9651 C.ar    1  UNL1       -0.0001
      7 C         139.6330  141.5921  165.9490 C.ar    1  UNL1       -0.0031
      8 C         139.2300  141.3594  164.5231 C.ar    1  UNL1       -0.0071
      9 C         139.2828  142.2384  163.3088 C.3     1  UNL1        0.1218
     10 S         138.6061  141.9541  160.7386 S.O2    1  UNL1        0.0444
     11 O         139.3738  140.7622  160.2485 O.2     1  UNL1       -0.1573
     12 O         137.8384  143.1459  161.2286 O.2     1  UNL1       -0.1573
     13 C         138.4741  142.4487  159.3286 C.3     1  UNL1        0.1691
     14 C         139.6751  142.9820  158.6054 C.3     1  UNL1        0.0270
     15 C         140.3645  145.4857  158.5258 C.3     1  UNL1        0.0001
     16 C         140.4433  144.1367  159.1769 C.3     1  UNL1        0.0019
     17 C         139.8616  140.7354  168.3911 C.2     1  UNL1        0.0047
     18 C         140.0727  142.1333  168.8922 C.2     1  UNL1        0.0598
     19 C         140.4758  142.3661  170.3182 C.2     1  UNL1        0.2679
     20 O         139.5146  143.0087  171.2739 O.2     1  UNL1       -0.2681
     21 N         141.8398  141.9562  170.7886 N.am    1  UNL1       -0.1934
     22 O         142.2428  142.1889  172.2145 O.3     1  UNL1       -0.2949
     23 H         142.4706  141.5343  170.1613 H       1  UNL1        0.1825
     24 H         141.5112  142.6096  172.6927 H       1  UNL1        0.2414
@<TRIPOS>BOND
     1    15    16    1
     2    16    14    1
     3    14    13    1
     4    13    10    1
     5    10    11    2
     6    10    12    2
     7    10     1    1
     8     1     2    1
     9     2     3    1
    10     3     4   ar
    11     4     5   ar
    12     5     6   ar
    13     6    17    1
    14    17    18    2
    15    18    19    1
    16    19    20    2
    17    19    21   am
    18    21    22    1
    19     6     7   ar
    20     7     8   ar
    21     8     9    1
    22     9     1    1
    23     8     3   ar
    24    21    23    1
    25    22    24    1
@<TRIPOS>MOLECULE
*****
 24 25 0 0 0
SMALL
GASTEIGER

@<TRIPOS>ATOM
      1 N         140.9637  144.2606  161.6515 N.3     1  UNL1       -0.1505
      2 C         139.6856  143.7991  162.2867 C.3     1  UNL1        0.1218
      3 C         140.0200  143.2059  163.6233 C.ar    1  UNL1       -0.0071
      4 C         139.1643  142.5917  164.6911 C.ar    1  UNL1       -0.0031
      5 C         139.7934  142.0724  165.9499 C.ar    1  UNL1       -0.0003
      6 C         141.2781  142.1673  166.1408 C.ar    1  UNL1       -0.0001
      7 C         142.1338  142.7816  165.0729 C.ar    1  UNL1       -0.0031
      8 C         141.5048  143.3009  163.8142 C.ar    1  UNL1       -0.0071
      9 C         142.0880  143.9527  162.5956 C.3     1  UNL1        0.1218
     10 S         141.0946  144.9151  160.3082 S.O2    1  UNL1        0.0444
     11 O         142.4847  144.3672  160.1767 O.2     1  UNL1       -0.1573
     12 O         139.7044  145.4630  160.4397 O.2     1  UNL1       -0.1573
     13 C         141.2254  145.5696  158.9649 C.3     1  UNL1        0.1691
     14 C         140.2506  145.2422  157.8729 C.3     1  UNL1        0.0270
     15 C         139.2667  147.0782  156.3200 C.3     1  UNL1        0.0001
     16 C         140.2840  146.0076  156.5833 C.3     1  UNL1        0.0019
     17 C         141.9072  141.6480  167.3997 C.2     1  UNL1        0.0047
     18 C         142.9854  142.4379  168.0804 C.2     1  UNL1        0.0598
     19 C         143.6145  141.9185  169.3393 C.2     1  UNL1        0.2679
     20 O         144.6084  142.7601  170.0834 O.2     1  UNL1       -0.2681
     21 N         143.2496  140.5577  169.8539 N.am    1  UNL1       -0.1934
     22 O         143.8786  140.0384  171.1127 O.3     1  UNL1       -0.2949
     23 H         142.5972  140.0053  169.3655 H       1  UNL1        0.1825
     24 H         144.4925  140.7017  171.4648 H       1  UNL1        0.2414
@<TRIPOS>BOND
     1    15    16    1
     2    16    14    1
     3    14    13    1
     4    13    10    1
     5    10    11    2
     6    10    12    2
     7    10     1    1
     8     1     2    1
     9     2     3    1
    10     3     4   ar
    11     4     5   ar
    12     5     6   ar
    13     6    17    1
    14    17    18    2
    15    18    19    1
    16    19    20    2
    17    19    21   am
    18    21    22    1
    19     6     7   ar
    20     7     8   ar
    21     8     9    1
    22     9     1    1
    23     8     3   ar
    24    21    23    1
    25    22    24    1
@<TRIPOS>MOLECULE
*****
 24 25 0 0 0
SMALL
GASTEIGER

@<TRIPOS>ATOM
      1 N         138.7649  141.4358  162.1363 N.3     1  UNL1       -0.1505
      2 C         137.9278  140.5514  163.0121 C.3     1  UNL1        0.1218
      3 C         138.6092  140.4388  164.3436 C.ar    1  UNL1       -0.0071
      4 C         138.2465  139.6996  165.5974 C.ar    1  UNL1       -0.0031
      5 C         139.1420  139.7752  166.7983 C.ar    1  UNL1       -0.0003
      6 C         140.4002  140.5901  166.7455 C.ar    1  UNL1       -0.0001
      7 C         140.7630  141.3293  165.4917 C.ar    1  UNL1       -0.0031
      8 C         139.8674  141.2537  164.2908 C.ar    1  UNL1       -0.0071
      9 C         139.9637  141.8699  162.9266 C.3     1  UNL1        0.1218
     10 S         138.4573  141.8190  160.7191 S.O2    1  UNL1        0.0444
     11 O         138.5902  140.3842  160.3023 O.2     1  UNL1       -0.1573
     12 O         138.3243  143.2538  161.1358 O.2     1  UNL1       -0.1573
     13 C         138.1496  142.2021  159.3018 C.3     1  UNL1        0.1691
     14 C         138.7617  141.4346  158.1677 C.3     1  UNL1        0.0270
     15 C         136.6308  141.0668  156.7274 C.3     1  UNL1        0.0001
     16 C         138.0874  141.4108  156.8280 C.3     1  UNL1        0.0019
     17 C         141.2958  140.6657  167.9465 C.2     1  UNL1        0.0047
     18 C         140.8740  140.0297  169.2378 C.2     1  UNL1        0.0598
     19 C         141.7695  140.1054  170.4388 C.2     1  UNL1        0.2679
     20 O         141.3690  140.9360  171.6219 O.2     1  UNL1       -0.2681
     21 N         143.0655  139.3504  170.4567 N.am    1  UNL1       -0.1934
     22 O         143.9610  139.4260  171.6577 O.3     1  UNL1       -0.2949
     23 H         143.3284  138.8052  169.6802 H       1  UNL1        0.1825
     24 H         143.5568  140.0005  172.3267 H       1  UNL1        0.2414
@<TRIPOS>BOND
     1    15    16    1
     2    16    14    1
     3    14    13    1
     4    13    10    1
     5    10    11    2
     6    10    12    2
     7    10     1    1
     8     1     2    1
     9     2     3    1
    10     3     4   ar
    11     4     5   ar
    12     5     6   ar
    13     6    17    1
    14    17    18    2
    15    18    19    1
    16    19    20    2
    17    19    21   am
    18    21    22    1
    19     6     7   ar
    20     7     8   ar
    21     8     9    1
    22     9     1    1
    23     8     3   ar
    24    21    23    1
    25    22    24    1
