@<TRIPOS>MOLECULE
*****
 31 35 0 0 0
SMALL
GASTEIGER

@<TRIPOS>ATOM
      1 C         142.1667  139.2199  168.4727 C.ar    1  UNL1       -0.0207
      2 C         143.2191  138.9310  167.4437 C.ar    1  UNL1       -0.0027
      3 C         142.9663  139.2550  166.0011 C.ar    1  UNL1        0.0188
      4 C         141.6612  139.8679  165.5876 C.ar    1  UNL1        0.0812
      5 N         141.4085  140.1920  164.1449 N.ar    1  UNL1       -0.2452
      6 C         140.1033  140.8049  163.7314 C.ar    1  UNL1        0.0850
      7 C         139.0509  141.0938  164.7605 C.ar    1  UNL1        0.0193
      8 C         139.3037  140.7697  166.2031 C.ar    1  UNL1        0.0030
      9 C         140.6088  140.1568  166.6166 C.ar    1  UNL1        0.0174
     10 C         140.8616  139.8328  168.0592 C.ar    1  UNL1       -0.0027
     11 C         139.8506  141.1289  162.2888 C.ar    1  UNL1        0.0650
     12 C         140.5645  142.1721  161.4813 C.ar    1  UNL1        0.1046
     13 N         139.9947  142.1546  160.0938 N.ar    1  UNL1       -0.1684
     14 N         138.9286  141.1005  160.0439 N.ar    1  UNL1       -0.2382
     15 C         138.0975  140.7430  158.8474 C.3     1  UNL1        0.1547
     16 C         138.8396  140.4666  161.4005 C.ar    1  UNL1        0.1378
     17 CL        137.9038  139.3640  161.7987 Cl      1  UNL1       -0.0616
     18 C         141.6564  143.0745  161.9746 C.ar    1  UNL1        0.0195
     19 C         143.0836  142.7951  161.6069 C.ar    1  UNL1        0.0016
     20 C         144.1755  143.6976  162.1003 C.ar    1  UNL1        0.0000
     21 C         143.8403  144.8792  162.9612 C.ar    1  UNL1        0.0000
     22 C         142.4131  145.1586  163.3288 C.ar    1  UNL1        0.0000
     23 C         141.3212  144.2562  162.8355 C.ar    1  UNL1        0.0016
     24 C         142.4194  138.8958  169.9154 C.3     1  UNL1        0.0437
     25 C         142.4918  139.9981  170.9301 C.3     1  UNL1        0.0768
     26 C         143.8213  142.6089  169.4929 C.3     1  UNL1        0.0173
     27 C         142.4160  142.5056  170.0070 C.3     1  UNL1        0.0576
     28 C         141.3750  143.5841  169.9508 C.3     1  UNL1        0.0174
     29 C         140.1205  143.0506  170.5766 C.3     1  UNL1        0.0187
     30 C         140.3862  141.6423  171.0197 C.3     1  UNL1        0.0721
     31 N         141.8049  141.3055  170.6676 N.3     1  UNL1       -0.2737
@<TRIPOS>BOND
     1    27    26    1
     2    27    28    1
     3    28    29    1
     4    29    30    1
     5    30    31    1
     6    31    25    1
     7    25    24    1
     8    24     1    1
     9     1     2   ar
    10     2     3   ar
    11     3     4   ar
    12     4     5   ar
    13     5     6   ar
    14     6    11    1
    15    11    12   ar
    16    12    18    1
    17    18    19   ar
    18    19    20   ar
    19    20    21   ar
    20    21    22   ar
    21    22    23   ar
    22    12    13   ar
    23    13    14   ar
    24    14    15    1
    25    14    16   ar
    26    16    17    1
    27     6     7   ar
    28     7     8   ar
    29     8     9   ar
    30     9    10   ar
    31    31    27    1
    32    10     1   ar
    33     9     4   ar
    34    16    11   ar
    35    23    18   ar
@<TRIPOS>MOLECULE
*****
 31 35 0 0 0
SMALL
GASTEIGER

@<TRIPOS>ATOM
      1 C         143.8408  141.0081  159.4252 C.ar    1  UNL1       -0.0207
      2 C         144.3174  142.1697  160.2457 C.ar    1  UNL1       -0.0027
      3 C         144.0034  142.2318  161.7111 C.ar    1  UNL1        0.0188
      4 C         143.2128  141.1322  162.3560 C.ar    1  UNL1        0.0812
      5 N         142.8988  141.1943  163.8215 N.ar    1  UNL1       -0.2452
      6 C         142.1082  140.0947  164.4664 C.ar    1  UNL1        0.0850
      7 C         141.6317  138.9330  163.6457 C.ar    1  UNL1        0.0193
      8 C         141.9457  138.8709  162.1803 C.ar    1  UNL1        0.0030
      9 C         142.7362  139.9705  161.5354 C.ar    1  UNL1        0.0174
     10 C         143.0502  139.9085  160.0700 C.ar    1  UNL1       -0.0027
     11 C         141.7942  140.1567  165.9318 C.ar    1  UNL1        0.0650
     12 C         140.7391  141.0092  166.5721 C.ar    1  UNL1        0.1046
     13 N         140.7730  140.7565  168.0503 N.ar    1  UNL1       -0.1684
     14 N         141.8491  139.7478  168.3235 N.ar    1  UNL1       -0.2382
     15 C         142.2275  139.2051  169.6697 C.3     1  UNL1        0.1547
     16 C         142.4802  139.3771  167.0142 C.ar    1  UNL1        0.1378
     17 CL        143.6006  138.3986  166.8213 Cl      1  UNL1       -0.0616
     18 C         139.8128  141.9494  165.8594 C.ar    1  UNL1        0.0195
     19 C         140.0188  143.4312  165.9680 C.ar    1  UNL1        0.0016
     20 C         139.0924  144.3714  165.2552 C.ar    1  UNL1        0.0000
     21 C         137.9601  143.8297  164.4340 C.ar    1  UNL1        0.0000
     22 C         137.7542  142.3478  164.3254 C.ar    1  UNL1        0.0000
     23 C         138.6805  141.4078  165.0381 C.ar    1  UNL1        0.0016
     24 C         144.1548  140.9460  157.9597 C.3     1  UNL1        0.0437
     25 C         144.6828  142.1596  157.2537 C.3     1  UNL1        0.0768
     26 C         147.6609  143.2556  158.0147 C.3     1  UNL1        0.0173
     27 C         147.2765  142.5575  156.7440 C.3     1  UNL1        0.0576
     28 C         148.1934  142.2406  155.6000 C.3     1  UNL1        0.0174
     29 C         147.3913  141.5409  154.5431 C.3     1  UNL1        0.0187
     30 C         145.9785  141.4254  155.0340 C.3     1  UNL1        0.0721
     31 N         145.9077  142.0537  156.3942 N.3     1  UNL1       -0.2737
@<TRIPOS>BOND
     1    27    26    1
     2    27    28    1
     3    28    29    1
     4    29    30    1
     5    30    31    1
     6    31    25    1
     7    25    24    1
     8    24     1    1
     9     1     2   ar
    10     2     3   ar
    11     3     4   ar
    12     4     5   ar
    13     5     6   ar
    14     6    11    1
    15    11    12   ar
    16    12    18    1
    17    18    19   ar
    18    19    20   ar
    19    20    21   ar
    20    21    22   ar
    21    22    23   ar
    22    12    13   ar
    23    13    14   ar
    24    14    15    1
    25    14    16   ar
    26    16    17    1
    27     6     7   ar
    28     7     8   ar
    29     8     9   ar
    30     9    10   ar
    31    31    27    1
    32    10     1   ar
    33     9     4   ar
    34    16    11   ar
    35    23    18   ar
@<TRIPOS>MOLECULE
*****
 31 35 0 0 0
SMALL
GASTEIGER

@<TRIPOS>ATOM
      1 C         140.5112  144.9642  161.3030 C.ar    1  UNL1       -0.0207
      2 C         141.5375  143.8704  161.3163 C.ar    1  UNL1       -0.0027
      3 C         141.7200  143.0282  162.5441 C.ar    1  UNL1        0.0188
      4 C         140.8763  143.2799  163.7585 C.ar    1  UNL1        0.0812
      5 N         141.0589  142.4376  164.9863 N.ar    1  UNL1       -0.2452
      6 C         140.2152  142.6892  166.2007 C.ar    1  UNL1        0.0850
      7 C         139.1888  143.7831  166.1873 C.ar    1  UNL1        0.0193
      8 C         139.0063  144.6253  164.9596 C.ar    1  UNL1        0.0030
      9 C         139.8500  144.3737  163.7452 C.ar    1  UNL1        0.0174
     10 C         139.6674  145.2158  162.5174 C.ar    1  UNL1       -0.0027
     11 C         140.3978  141.8471  167.4284 C.ar    1  UNL1        0.0650
     12 C         140.4672  140.3492  167.4678 C.ar    1  UNL1        0.1046
     13 N         140.6553  139.9312  168.8960 N.ar    1  UNL1       -0.1684
     14 N         140.7022  141.1709  169.7394 N.ar    1  UNL1       -0.2382
     15 C         140.8774  141.2182  171.2284 C.3     1  UNL1        0.1547
     16 C         140.5430  142.3549  168.8323 C.ar    1  UNL1        0.1378
     17 CL        140.5311  143.7940  169.2550 Cl      1  UNL1       -0.0616
     18 C         140.3662  139.4305  166.2864 C.ar    1  UNL1        0.0195
     19 C         139.0204  139.0588  165.7383 C.ar    1  UNL1        0.0016
     20 C         138.9194  138.1400  164.5568 C.ar    1  UNL1        0.0000
     21 C         140.1643  137.5931  163.9235 C.ar    1  UNL1        0.0000
     22 C         141.5102  137.9649  164.4716 C.ar    1  UNL1        0.0000
     23 C         141.6111  138.8835  165.6530 C.ar    1  UNL1        0.0016
     24 C         140.3285  145.8065  160.0753 C.3     1  UNL1        0.0437
     25 C         140.9861  145.4075  158.7875 C.3     1  UNL1        0.0768
     26 C         139.5114  142.6918  157.7390 C.3     1  UNL1        0.0173
     27 C         139.4901  144.0267  157.0553 C.3     1  UNL1        0.0576
     28 C         138.7873  144.3477  155.7696 C.3     1  UNL1        0.0174
     29 C         139.0308  145.7944  155.4569 C.3     1  UNL1        0.0187
     30 C         139.8841  146.3675  156.5494 C.3     1  UNL1        0.0721
     31 N         140.1680  145.2750  157.5372 N.3     1  UNL1       -0.2737
@<TRIPOS>BOND
     1    27    26    1
     2    27    28    1
     3    28    29    1
     4    29    30    1
     5    30    31    1
     6    31    25    1
     7    25    24    1
     8    24     1    1
     9     1     2   ar
    10     2     3   ar
    11     3     4   ar
    12     4     5   ar
    13     5     6   ar
    14     6    11    1
    15    11    12   ar
    16    12    18    1
    17    18    19   ar
    18    19    20   ar
    19    20    21   ar
    20    21    22   ar
    21    22    23   ar
    22    12    13   ar
    23    13    14   ar
    24    14    15    1
    25    14    16   ar
    26    16    17    1
    27     6     7   ar
    28     7     8   ar
    29     8     9   ar
    30     9    10   ar
    31    31    27    1
    32    10     1   ar
    33     9     4   ar
    34    16    11   ar
    35    23    18   ar
@<TRIPOS>MOLECULE
*****
 31 35 0 0 0
SMALL
GASTEIGER

@<TRIPOS>ATOM
      1 C         141.6932  138.4249  159.1296 C.ar    1  UNL1       -0.0207
      2 C         140.3587  138.7494  159.7326 C.ar    1  UNL1       -0.0027
      3 C         140.2763  139.2625  161.1397 C.ar    1  UNL1        0.0188
      4 C         141.5285  139.4511  161.9437 C.ar    1  UNL1        0.0812
      5 N         141.4461  139.9642  163.3509 N.ar    1  UNL1       -0.2452
      6 C         142.6983  140.1528  164.1549 C.ar    1  UNL1        0.0850
      7 C         144.0329  139.8283  163.5518 C.ar    1  UNL1        0.0193
      8 C         144.1152  139.3152  162.1447 C.ar    1  UNL1        0.0030
      9 C         142.8630  139.1266  161.3407 C.ar    1  UNL1        0.0174
     10 C         142.9454  138.6135  159.9336 C.ar    1  UNL1       -0.0027
     11 C         142.6160  140.6659  165.5620 C.ar    1  UNL1        0.0650
     12 C         142.2642  142.0656  165.9709 C.ar    1  UNL1        0.1046
     13 N         142.3018  142.1342  167.4688 N.ar    1  UNL1       -0.1684
     14 N         142.6767  140.7769  167.9857 N.ar    1  UNL1       -0.2382
     15 C         142.8305  140.3942  169.4279 C.3     1  UNL1        0.1547
     16 C         142.8709  139.8695  166.8072 C.ar    1  UNL1        0.1378
     17 CL        143.2530  138.4201  166.8640 Cl      1  UNL1       -0.0616
     18 C         141.9331  143.1979  165.0445 C.ar    1  UNL1        0.0195
     19 C         143.0300  143.9161  164.3159 C.ar    1  UNL1        0.0016
     20 C         142.6987  145.0485  163.3894 C.ar    1  UNL1        0.0000
     21 C         141.2707  145.4625  163.1917 C.ar    1  UNL1        0.0000
     22 C         140.1737  144.7443  163.9205 C.ar    1  UNL1        0.0000
     23 C         140.5050  143.6121  164.8468 C.ar    1  UNL1        0.0016
     24 C         141.7756  137.9117  157.7225 C.3     1  UNL1        0.0437
     25 C         142.7994  136.8771  157.3602 C.3     1  UNL1        0.0768
     26 C         143.8909  133.8448  157.8726 C.3     1  UNL1        0.0173
     27 C         142.8921  134.2583  156.8328 C.3     1  UNL1        0.0576
     28 C         142.2196  133.3506  155.8459 C.3     1  UNL1        0.0174
     29 C         141.3022  134.1835  155.0004 C.3     1  UNL1        0.0187
     30 C         141.4078  135.6060  155.4648 C.3     1  UNL1        0.0721
     31 N         142.3904  135.6521  156.5972 N.3     1  UNL1       -0.2737
@<TRIPOS>BOND
     1    27    26    1
     2    27    28    1
     3    28    29    1
     4    29    30    1
     5    30    31    1
     6    31    25    1
     7    25    24    1
     8    24     1    1
     9     1     2   ar
    10     2     3   ar
    11     3     4   ar
    12     4     5   ar
    13     5     6   ar
    14     6    11    1
    15    11    12   ar
    16    12    18    1
    17    18    19   ar
    18    19    20   ar
    19    20    21   ar
    20    21    22   ar
    21    22    23   ar
    22    12    13   ar
    23    13    14   ar
    24    14    15    1
    25    14    16   ar
    26    16    17    1
    27     6     7   ar
    28     7     8   ar
    29     8     9   ar
    30     9    10   ar
    31    31    27    1
    32    10     1   ar
    33     9     4   ar
    34    16    11   ar
    35    23    18   ar
@<TRIPOS>MOLECULE
*****
 31 35 0 0 0
SMALL
GASTEIGER

@<TRIPOS>ATOM
      1 C         141.6301  138.3417  159.0606 C.ar    1  UNL1       -0.0207
      2 C         142.6614  137.8056  160.0087 C.ar    1  UNL1       -0.0027
      3 C         142.6059  138.1714  161.4623 C.ar    1  UNL1        0.0188
      4 C         141.5191  139.0733  161.9678 C.ar    1  UNL1        0.0812
      5 N         141.4637  139.4392  163.4215 N.ar    1  UNL1       -0.2452
      6 C         140.3769  140.3411  163.9269 C.ar    1  UNL1        0.0850
      7 C         139.3456  140.8772  162.9787 C.ar    1  UNL1        0.0193
      8 C         139.4011  140.5113  161.5251 C.ar    1  UNL1        0.0030
      9 C         140.4878  139.6094  161.0196 C.ar    1  UNL1        0.0174
     10 C         140.5433  139.2436  159.5660 C.ar    1  UNL1       -0.0027
     11 C         140.3214  140.7069  165.3806 C.ar    1  UNL1        0.0650
     12 C         140.9964  141.8841  166.0199 C.ar    1  UNL1        0.1046
     13 N         140.6734  141.8645  167.4845 N.ar    1  UNL1       -0.1684
     14 N         139.7987  140.6753  167.7504 N.ar    1  UNL1       -0.2382
     15 C         139.2396  140.2722  169.0827 C.3     1  UNL1        0.1547
     16 C         139.5812  139.9599  166.4501 C.ar    1  UNL1        0.1378
     17 CL        138.7664  138.7158  166.2538 Cl      1  UNL1       -0.0616
     18 C         141.8455  142.9020  165.3178 C.ar    1  UNL1        0.0195
     19 C         141.1991  144.0115  164.5425 C.ar    1  UNL1        0.0016
     20 C         142.0482  145.0295  163.8404 C.ar    1  UNL1        0.0000
     21 C         143.5435  144.9379  163.9137 C.ar    1  UNL1        0.0000
     22 C         144.1899  143.8284  164.6891 C.ar    1  UNL1        0.0000
     23 C         143.3409  142.8105  165.3911 C.ar    1  UNL1        0.0016
     24 C         141.6855  137.9758  157.6069 C.3     1  UNL1        0.0437
     25 C         142.8469  137.1895  157.0751 C.3     1  UNL1        0.0768
     26 C         140.9131  135.9401  154.7624 C.3     1  UNL1        0.0173
     27 C         141.7940  135.1590  155.6917 C.3     1  UNL1        0.0576
     28 C         141.9408  133.6665  155.7211 C.3     1  UNL1        0.0174
     29 C         142.9204  133.3183  156.8025 C.3     1  UNL1        0.0187
     30 C         143.3791  134.5957  157.4413 C.3     1  UNL1        0.0721
     31 N         142.6829  135.7332  156.7547 N.3     1  UNL1       -0.2737
@<TRIPOS>BOND
     1    27    26    1
     2    27    28    1
     3    28    29    1
     4    29    30    1
     5    30    31    1
     6    31    25    1
     7    25    24    1
     8    24     1    1
     9     1     2   ar
    10     2     3   ar
    11     3     4   ar
    12     4     5   ar
    13     5     6   ar
    14     6    11    1
    15    11    12   ar
    16    12    18    1
    17    18    19   ar
    18    19    20   ar
    19    20    21   ar
    20    21    22   ar
    21    22    23   ar
    22    12    13   ar
    23    13    14   ar
    24    14    15    1
    25    14    16   ar
    26    16    17    1
    27     6     7   ar
    28     7     8   ar
    29     8     9   ar
    30     9    10   ar
    31    31    27    1
    32    10     1   ar
    33     9     4   ar
    34    16    11   ar
    35    23    18   ar
@<TRIPOS>MOLECULE
*****
 31 35 0 0 0
SMALL
GASTEIGER

@<TRIPOS>ATOM
      1 C         139.4203  139.8441  158.8034 C.ar    1  UNL1       -0.0207
      2 C         139.5418  141.2653  159.2674 C.ar    1  UNL1       -0.0027
      3 C         139.7842  141.5626  160.7175 C.ar    1  UNL1        0.0188
      4 C         139.9052  140.4387  161.7035 C.ar    1  UNL1        0.0812
      5 N         140.1477  140.7361  163.1536 N.ar    1  UNL1       -0.2452
      6 C         140.2687  139.6123  164.1397 C.ar    1  UNL1        0.0850
      7 C         140.1472  138.1910  163.6756 C.ar    1  UNL1        0.0193
      8 C         139.9047  137.8937  162.2255 C.ar    1  UNL1        0.0030
      9 C         139.7837  139.0175  161.2395 C.ar    1  UNL1        0.0174
     10 C         139.5413  138.7202  159.7894 C.ar    1  UNL1       -0.0027
     11 C         140.5111  139.9096  165.5898 C.ar    1  UNL1        0.0650
     12 C         141.7883  140.4271  166.1821 C.ar    1  UNL1        0.1046
     13 N         141.5855  140.5790  167.6606 N.ar    1  UNL1       -0.1684
     14 N         140.1829  140.1554  167.9819 N.ar    1  UNL1       -0.2382
     15 C         139.5546  140.1469  169.3440 C.3     1  UNL1        0.1547
     16 C         139.5189  139.7417  166.7021 C.ar    1  UNL1        0.1378
     17 CL        138.1100  139.2469  166.5596 Cl      1  UNL1       -0.0616
     18 C         143.0474  140.7381  165.4284 C.ar    1  UNL1        0.0195
     19 C         143.8704  139.6248  164.8513 C.ar    1  UNL1        0.0016
     20 C         145.1295  139.9359  164.0975 C.ar    1  UNL1        0.0000
     21 C         145.5654  141.3602  163.9210 C.ar    1  UNL1        0.0000
     22 C         144.7423  142.4736  164.4982 C.ar    1  UNL1        0.0000
     23 C         143.4834  142.1625  165.2518 C.ar    1  UNL1        0.0016
     24 C         139.1778  139.5467  157.3532 C.3     1  UNL1        0.0437
     25 C         140.3377  139.3103  156.4319 C.3     1  UNL1        0.0768
     26 C         142.9752  138.9105  158.3115 C.3     1  UNL1        0.0173
     27 C         142.3626  137.8717  157.4196 C.3     1  UNL1        0.0576
     28 C         142.8546  136.4668  157.2350 C.3     1  UNL1        0.0174
     29 C         141.9464  135.7822  156.2569 C.3     1  UNL1        0.0187
     30 C         140.8930  136.7642  155.8371 C.3     1  UNL1        0.0721
     31 N         141.1502  138.0555  156.5557 N.3     1  UNL1       -0.2737
@<TRIPOS>BOND
     1    27    26    1
     2    27    28    1
     3    28    29    1
     4    29    30    1
     5    30    31    1
     6    31    25    1
     7    25    24    1
     8    24     1    1
     9     1     2   ar
    10     2     3   ar
    11     3     4   ar
    12     4     5   ar
    13     5     6   ar
    14     6    11    1
    15    11    12   ar
    16    12    18    1
    17    18    19   ar
    18    19    20   ar
    19    20    21   ar
    20    21    22   ar
    21    22    23   ar
    22    12    13   ar
    23    13    14   ar
    24    14    15    1
    25    14    16   ar
    26    16    17    1
    27     6     7   ar
    28     7     8   ar
    29     8     9   ar
    30     9    10   ar
    31    31    27    1
    32    10     1   ar
    33     9     4   ar
    34    16    11   ar
    35    23    18   ar
@<TRIPOS>MOLECULE
*****
 31 35 0 0 0
SMALL
GASTEIGER

@<TRIPOS>ATOM
      1 C         143.7305  140.6633  159.5575 C.ar    1  UNL1       -0.0207
      2 C         144.0346  141.9484  160.2686 C.ar    1  UNL1       -0.0027
      3 C         143.6838  142.1044  161.7186 C.ar    1  UNL1        0.0188
      4 C         143.0288  140.9751  162.4575 C.ar    1  UNL1        0.0812
      5 N         142.6780  141.1311  163.9075 N.ar    1  UNL1       -0.2452
      6 C         142.0230  140.0019  164.6464 C.ar    1  UNL1        0.0850
      7 C         141.7189  138.7167  163.9351 C.ar    1  UNL1        0.0193
      8 C         142.0698  138.5607  162.4851 C.ar    1  UNL1        0.0030
      9 C         142.7247  139.6900  161.7463 C.ar    1  UNL1        0.0174
     10 C         143.0756  139.5340  160.2963 C.ar    1  UNL1       -0.0027
     11 C         141.6722  140.1578  166.0964 C.ar    1  UNL1        0.0650
     12 C         140.6210  141.0699  166.6560 C.ar    1  UNL1        0.1046
     13 N         140.6100  140.9049  168.1469 N.ar    1  UNL1       -0.1684
     14 N         141.6545  139.8908  168.5086 N.ar    1  UNL1       -0.2382
     15 C         141.9845  139.4208  169.8943 C.3     1  UNL1        0.1547
     16 C         142.3109  139.4291  167.2413 C.ar    1  UNL1        0.1378
     17 CL        143.4126  138.4165  167.1373 Cl      1  UNL1       -0.0616
     18 C         139.7361  141.9862  165.8639 C.ar    1  UNL1        0.0195
     19 C         139.9649  143.4681  165.9024 C.ar    1  UNL1        0.0016
     20 C         139.0799  144.3844  165.1102 C.ar    1  UNL1        0.0000
     21 C         137.9664  143.8187  164.2797 C.ar    1  UNL1        0.0000
     22 C         137.7377  142.3367  164.2412 C.ar    1  UNL1        0.0000
     23 C         138.6225  141.4205  165.0333 C.ar    1  UNL1        0.0016
     24 C         144.0814  140.5073  158.1074 C.3     1  UNL1        0.0437
     25 C         143.1160  139.8458  157.1691 C.3     1  UNL1        0.0768
     26 C         144.9279  138.8813  154.6322 C.3     1  UNL1        0.0173
     27 C         144.1758  137.9843  155.5701 C.3     1  UNL1        0.0576
     28 C         144.1246  136.4866  155.5067 C.3     1  UNL1        0.0174
     29 C         143.2600  136.0042  156.6336 C.3     1  UNL1        0.0187
     30 C         142.7770  137.2039  157.3936 C.3     1  UNL1        0.0721
     31 N         143.3430  138.4277  156.7362 N.3     1  UNL1       -0.2737
@<TRIPOS>BOND
     1    27    26    1
     2    27    28    1
     3    28    29    1
     4    29    30    1
     5    30    31    1
     6    31    25    1
     7    25    24    1
     8    24     1    1
     9     1     2   ar
    10     2     3   ar
    11     3     4   ar
    12     4     5   ar
    13     5     6   ar
    14     6    11    1
    15    11    12   ar
    16    12    18    1
    17    18    19   ar
    18    19    20   ar
    19    20    21   ar
    20    21    22   ar
    21    22    23   ar
    22    12    13   ar
    23    13    14   ar
    24    14    15    1
    25    14    16   ar
    26    16    17    1
    27     6     7   ar
    28     7     8   ar
    29     8     9   ar
    30     9    10   ar
    31    31    27    1
    32    10     1   ar
    33     9     4   ar
    34    16    11   ar
    35    23    18   ar
@<TRIPOS>MOLECULE
*****
 31 35 0 0 0
SMALL
GASTEIGER

@<TRIPOS>ATOM
      1 C         141.1289  144.7704  161.2758 C.ar    1  UNL1       -0.0207
      2 C         142.2659  143.8148  161.4854 C.ar    1  UNL1       -0.0027
      3 C         142.3706  143.0435  162.7676 C.ar    1  UNL1        0.0188
      4 C         141.3383  143.2277  163.8401 C.ar    1  UNL1        0.0812
      5 N         141.4430  142.4563  165.1224 N.ar    1  UNL1       -0.2452
      6 C         140.4107  142.6406  166.1949 C.ar    1  UNL1        0.0850
      7 C         139.2736  143.5963  165.9852 C.ar    1  UNL1        0.0193
      8 C         139.1689  144.3676  164.7030 C.ar    1  UNL1        0.0030
      9 C         140.2012  144.1833  163.6305 C.ar    1  UNL1        0.0174
     10 C         140.0966  144.9546  162.3483 C.ar    1  UNL1       -0.0027
     11 C         140.5154  141.8693  167.4771 C.ar    1  UNL1        0.0650
     12 C         140.6090  140.3775  167.6035 C.ar    1  UNL1        0.1046
     13 N         140.6963  140.0406  169.0626 N.ar    1  UNL1       -0.1684
     14 N         140.6566  141.3241  169.8379 N.ar    1  UNL1       -0.2382
     15 C         140.7179  141.4545  171.3310 C.3     1  UNL1        0.1547
     16 C         140.5447  142.4543  168.8580 C.ar    1  UNL1        0.1378
     17 CL        140.4746  143.9132  169.1992 Cl      1  UNL1       -0.0616
     18 C         140.6145  139.3952  166.4699 C.ar    1  UNL1        0.0195
     19 C         141.9156  138.9389  165.8792 C.ar    1  UNL1        0.0016
     20 C         141.9209  137.9566  164.7456 C.ar    1  UNL1        0.0000
     21 C         140.6254  137.4306  164.2028 C.ar    1  UNL1        0.0000
     22 C         139.3242  137.8870  164.7936 C.ar    1  UNL1        0.0000
     23 C         139.3189  138.8692  165.9271 C.ar    1  UNL1        0.0016
     24 C         141.0241  145.5418  159.9935 C.3     1  UNL1        0.0437
     25 C         140.3274  144.9385  158.8101 C.3     1  UNL1        0.0768
     26 C         138.5925  142.4200  159.9488 C.3     1  UNL1        0.0173
     27 C         139.7452  142.3360  158.9927 C.3     1  UNL1        0.0576
     28 C         140.3029  141.0796  158.3922 C.3     1  UNL1        0.0174
     29 C         141.4451  141.4608  157.4976 C.3     1  UNL1        0.0187
     30 C         141.5932  142.9528  157.5452 C.3     1  UNL1        0.0721
     31 N         140.5427  143.4936  158.4693 N.3     1  UNL1       -0.2737
@<TRIPOS>BOND
     1    27    26    1
     2    27    28    1
     3    28    29    1
     4    29    30    1
     5    30    31    1
     6    31    25    1
     7    25    24    1
     8    24     1    1
     9     1     2   ar
    10     2     3   ar
    11     3     4   ar
    12     4     5   ar
    13     5     6   ar
    14     6    11    1
    15    11    12   ar
    16    12    18    1
    17    18    19   ar
    18    19    20   ar
    19    20    21   ar
    20    21    22   ar
    21    22    23   ar
    22    12    13   ar
    23    13    14   ar
    24    14    15    1
    25    14    16   ar
    26    16    17    1
    27     6     7   ar
    28     7     8   ar
    29     8     9   ar
    30     9    10   ar
    31    31    27    1
    32    10     1   ar
    33     9     4   ar
    34    16    11   ar
    35    23    18   ar
@<TRIPOS>MOLECULE
*****
 31 35 0 0 0
SMALL
GASTEIGER

@<TRIPOS>ATOM
      1 C         142.7155  138.3329  165.0149 C.ar    1  UNL1       -0.0207
      2 C         141.4627  137.5679  164.7062 C.ar    1  UNL1       -0.0027
      3 C         141.0353  137.3722  163.2819 C.ar    1  UNL1        0.0188
      4 C         141.8606  137.9414  162.1662 C.ar    1  UNL1        0.0812
      5 N         141.4331  137.7457  160.7417 N.ar    1  UNL1       -0.2452
      6 C         142.2584  138.3150  159.6260 C.ar    1  UNL1        0.0850
      7 C         143.5112  139.0800  159.9348 C.ar    1  UNL1        0.0193
      8 C         143.9387  139.2757  161.3592 C.ar    1  UNL1        0.0030
      9 C         143.1133  138.7065  162.4749 C.ar    1  UNL1        0.0174
     10 C         143.5408  138.9022  163.8993 C.ar    1  UNL1       -0.0027
     11 C         141.8310  138.1193  158.2016 C.ar    1  UNL1        0.0650
     12 C         140.8949  139.0037  157.4325 C.ar    1  UNL1        0.1046
     13 N         140.7500  138.4358  156.0518 N.ar    1  UNL1       -0.1684
     14 N         141.5965  137.2003  155.9676 N.ar    1  UNL1       -0.2382
     15 C         141.7482  136.3157  154.7657 C.3     1  UNL1        0.1547
     16 C         142.2645  137.0047  157.2962 C.ar    1  UNL1        0.1378
     17 CL        143.2016  135.8902  157.6563 Cl      1  UNL1       -0.0616
     18 C         140.2220  140.2392  157.9527 C.ar    1  UNL1        0.0195
     19 C         140.7053  141.5932  157.5248 C.ar    1  UNL1        0.0016
     20 C         140.0322  142.8287  158.0451 C.ar    1  UNL1        0.0000
     21 C         138.8761  142.7102  158.9933 C.ar    1  UNL1        0.0000
     22 C         138.3928  141.3561  159.4212 C.ar    1  UNL1        0.0000
     23 C         139.0657  140.1207  158.9010 C.ar    1  UNL1        0.0016
     24 C         143.1430  138.5286  166.4394 C.3     1  UNL1        0.0437
     25 C         142.8521  139.8234  167.1386 C.3     1  UNL1        0.0768
     26 C         139.7329  140.4679  166.4280 C.3     1  UNL1        0.0173
     27 C         140.2891  140.2036  167.7958 C.3     1  UNL1        0.0576
     28 C         139.5092  140.1891  169.0770 C.3     1  UNL1        0.0174
     29 C         140.4610  139.8839  170.1956 C.3     1  UNL1        0.0187
     30 C         141.8291  139.7097  169.6055 C.3     1  UNL1        0.0721
     31 N         141.7228  139.9073  168.1224 N.3     1  UNL1       -0.2737
@<TRIPOS>BOND
     1    27    26    1
     2    27    28    1
     3    28    29    1
     4    29    30    1
     5    30    31    1
     6    31    25    1
     7    25    24    1
     8    24     1    1
     9     1     2   ar
    10     2     3   ar
    11     3     4   ar
    12     4     5   ar
    13     5     6   ar
    14     6    11    1
    15    11    12   ar
    16    12    18    1
    17    18    19   ar
    18    19    20   ar
    19    20    21   ar
    20    21    22   ar
    21    22    23   ar
    22    12    13   ar
    23    13    14   ar
    24    14    15    1
    25    14    16   ar
    26    16    17    1
    27     6     7   ar
    28     7     8   ar
    29     8     9   ar
    30     9    10   ar
    31    31    27    1
    32    10     1   ar
    33     9     4   ar
    34    16    11   ar
    35    23    18   ar
