@<TRIPOS>MOLECULE
*****
 37 40 0 0 0
SMALL
GASTEIGER

@<TRIPOS>ATOM
      1 C         141.7132  143.7391  161.1562 C.ar    1  UNL1        0.1973
      2 O         142.2603  144.8026  160.2508 O.2     1  UNL1       -0.4318
      3 C         141.5187  144.7298  158.9490 C.ar    1  UNL1        0.2310
      4 N         141.6291  145.5296  157.6849 N.ar    1  UNL1       -0.2113
      5 C         140.7339  145.2210  156.5216 C.ar    1  UNL1        0.0852
      6 C         139.7283  144.1126  156.6224 C.ar    1  UNL1        0.0180
      7 C         139.6179  143.3127  157.8865 C.ar    1  UNL1        0.0075
      8 C         140.5131  143.6213  159.0498 C.ar    1  UNL1        0.0702
      9 C         140.6333  143.0091  160.4139 C.ar    1  UNL1        0.0929
     10 C         140.8443  146.0209  155.2574 C.ar    1  UNL1        0.0283
     11 C         141.7843  145.5842  154.1732 C.ar    1  UNL1        0.0023
     12 C         141.8947  146.3841  152.9090 C.ar    1  UNL1        0.0001
     13 C         141.0650  147.6206  152.7291 C.ar    1  UNL1        0.0009
     14 C         140.1248  148.0574  153.8134 C.ar    1  UNL1        0.0114
     15 C         140.0145  147.2575  155.0775 C.ar    1  UNL1        0.0591
     16 CL        139.0744  147.6942  156.1617 Cl      1  UNL1       -0.0822
     17 C         138.8331  143.8040  155.4590 C.ar    1  UNL1        0.0015
     18 C         139.2448  142.7751  154.4481 C.ar    1  UNL1        0.0009
     19 C         138.3497  142.4665  153.2847 C.ar    1  UNL1        0.0114
     20 C         137.0428  143.1868  153.1322 C.ar    1  UNL1        0.0577
     21 CL        136.1477  142.8782  151.9688 Cl      1  UNL1       -0.0822
     22 C         136.6311  144.2157  154.1431 C.ar    1  UNL1        0.0114
     23 C         137.5263  144.5243  155.3065 C.ar    1  UNL1        0.0009
     24 N         139.8170  141.8672  160.9428 N.am    1  UNL1       -0.2793
     25 C         138.4846  142.1296  161.5799 C.2     1  UNL1        0.2561
     26 O         137.9685  143.5339  161.6881 O.2     1  UNL1       -0.2721
     27 H         140.1557  140.9456  160.8718 H       1  UNL1        0.1550
     28 C         137.6683  140.9877  162.1088 C.3     1  UNL1        0.2232
     29 O         136.6187  141.2357  163.1513 O.3     1  UNL1       -0.3737
     30 H         137.0425  141.5270  163.9738 H       1  UNL1        0.2111
     31 C         142.1663  143.4555  162.5577 C.2     1  UNL1        0.2322
     32 O         141.8398  142.1397  163.1997 O.2     1  UNL1       -0.2856
     33 C         141.6693  145.1912  163.6713 C.3     1  UNL1        0.0374
     34 C         142.9458  144.4876  163.3172 C.3     1  UNL1        0.1462
     35 C         144.2224  143.7840  162.9632 C.3     1  UNL1        0.0374
     36 O         143.7254  145.5198  164.0768 O.3     1  UNL1       -0.3793
     37 H         144.6718  145.3133  164.0247 H       1  UNL1        0.2108
@<TRIPOS>BOND
     1    33    34    1
     2    34    35    1
     3    34    36    1
     4    34    31    1
     5    31    32    2
     6    31     1    1
     7     1     2   ar
     8     2     3   ar
     9     3     4   ar
    10     4     5   ar
    11     5    10    1
    12    10    11   ar
    13    11    12   ar
    14    12    13   ar
    15    13    14   ar
    16    14    15   ar
    17    15    16    1
    18     5     6   ar
    19     6    17    1
    20    17    18   ar
    21    18    19   ar
    22    19    20   ar
    23    20    21    1
    24    20    22   ar
    25    22    23   ar
    26     6     7   ar
    27     7     8   ar
    28     8     9   ar
    29     9    24    1
    30    24    25   am
    31    25    26    2
    32    25    28    1
    33    28    29    1
    34     9     1   ar
    35     8     3   ar
    36    15    10   ar
    37    23    17   ar
    38    36    37    1
    39    24    27    1
    40    29    30    1
@<TRIPOS>MOLECULE
*****
 37 40 0 0 0
SMALL
GASTEIGER

@<TRIPOS>ATOM
      1 C         142.2494  138.4736  157.4261 C.ar    1  UNL1        0.1973
      2 O         141.0539  138.0492  158.2264 O.2     1  UNL1       -0.4318
      3 C         141.1970  138.6140  159.6087 C.ar    1  UNL1        0.2310
      4 N         140.3240  138.5240  160.8251 N.ar    1  UNL1       -0.2113
      5 C         140.7351  139.2073  162.0955 C.ar    1  UNL1        0.0852
      6 C         142.0192  139.9808  162.1494 C.ar    1  UNL1        0.0180
      7 C         142.8922  140.0708  160.9330 C.ar    1  UNL1        0.0075
      8 C         142.4811  139.3874  159.6626 C.ar    1  UNL1        0.0702
      9 C         143.1315  139.3006  158.3138 C.ar    1  UNL1        0.0929
     10 C         139.8621  139.1173  163.3120 C.ar    1  UNL1        0.0283
     11 C         138.8726  140.2053  163.6072 C.ar    1  UNL1        0.0023
     12 C         137.9996  140.1153  164.8237 C.ar    1  UNL1        0.0001
     13 C         138.1161  138.9372  165.7449 C.ar    1  UNL1        0.0009
     14 C         139.1057  137.8492  165.4497 C.ar    1  UNL1        0.0114
     15 C         139.9786  137.9393  164.2332 C.ar    1  UNL1        0.0591
     16 CL        140.9682  136.8513  163.9379 Cl      1  UNL1       -0.0822
     17 C         142.4303  140.6642  163.4199 C.ar    1  UNL1        0.0015
     18 C         143.1040  139.8819  164.5082 C.ar    1  UNL1        0.0009
     19 C         143.5150  140.5653  165.7786 C.ar    1  UNL1        0.0114
     20 C         143.2525  142.0309  165.9608 C.ar    1  UNL1        0.0577
     21 CL        143.6636  142.7142  167.2313 Cl      1  UNL1       -0.0822
     22 C         142.5788  142.8131  164.8726 C.ar    1  UNL1        0.0114
     23 C         142.1677  142.1297  163.6021 C.ar    1  UNL1        0.0009
     24 N         144.4352  139.9303  157.9214 N.am    1  UNL1       -0.2793
     25 C         144.4505  141.2875  157.2830 C.2     1  UNL1        0.2561
     26 O         143.1621  142.0152  157.0368 O.2     1  UNL1       -0.2721
     27 H         145.2808  139.4528  158.0830 H       1  UNL1        0.1550
     28 C         145.7542  141.9172  156.8907 C.3     1  UNL1        0.2232
     29 O         146.7545  141.1353  156.0920 O.3     1  UNL1       -0.3737
     30 H         147.0855  140.3949  156.6243 H       1  UNL1        0.2111
     31 C         142.5161  138.1310  155.9903 C.2     1  UNL1        0.2322
     32 O         141.6087  138.6497  154.9145 O.2     1  UNL1       -0.2856
     33 C         143.0961  136.1341  156.4097 C.3     1  UNL1        0.0374
     34 C         143.6902  137.2697  155.6304 C.3     1  UNL1        0.1462
     35 C         144.2843  138.4053  154.8510 C.3     1  UNL1        0.0374
     36 O         144.8644  136.4083  155.2704 O.3     1  UNL1       -0.3793
     37 H         145.4797  136.9150  154.7177 H       1  UNL1        0.2108
@<TRIPOS>BOND
     1    33    34    1
     2    34    35    1
     3    34    36    1
     4    34    31    1
     5    31    32    2
     6    31     1    1
     7     1     2   ar
     8     2     3   ar
     9     3     4   ar
    10     4     5   ar
    11     5    10    1
    12    10    11   ar
    13    11    12   ar
    14    12    13   ar
    15    13    14   ar
    16    14    15   ar
    17    15    16    1
    18     5     6   ar
    19     6    17    1
    20    17    18   ar
    21    18    19   ar
    22    19    20   ar
    23    20    21    1
    24    20    22   ar
    25    22    23   ar
    26     6     7   ar
    27     7     8   ar
    28     8     9   ar
    29     9    24    1
    30    24    25   am
    31    25    26    2
    32    25    28    1
    33    28    29    1
    34     9     1   ar
    35     8     3   ar
    36    15    10   ar
    37    23    17   ar
    38    36    37    1
    39    24    27    1
    40    29    30    1
@<TRIPOS>MOLECULE
*****
 37 40 0 0 0
SMALL
GASTEIGER

@<TRIPOS>ATOM
      1 C         142.2612  138.4684  157.5413 C.ar    1  UNL1        0.1973
      2 O         141.0659  138.0210  158.3294 O.2     1  UNL1       -0.4318
      3 C         141.1943  138.5715  159.7188 C.ar    1  UNL1        0.2310
      4 N         140.3152  138.4573  160.9288 N.ar    1  UNL1       -0.2113
      5 C         140.7107  139.1308  162.2094 C.ar    1  UNL1        0.0852
      6 C         141.9853  139.9184  162.2800 C.ar    1  UNL1        0.0180
      7 C         142.8644  140.0326  161.0700 C.ar    1  UNL1        0.0075
      8 C         142.4689  139.3591  159.7894 C.ar    1  UNL1        0.0702
      9 C         143.1283  139.2954  158.4436 C.ar    1  UNL1        0.0929
     10 C         139.8316  139.0166  163.4195 C.ar    1  UNL1        0.0283
     11 C         139.8610  137.7698  164.2529 C.ar    1  UNL1        0.0023
     12 C         138.9819  137.6557  165.4630 C.ar    1  UNL1        0.0001
     13 C         138.0735  138.7883  165.8396 C.ar    1  UNL1        0.0009
     14 C         138.0441  140.0351  165.0061 C.ar    1  UNL1        0.0114
     15 C         138.9232  140.1492  163.7961 C.ar    1  UNL1        0.0591
     16 CL        138.8938  141.3960  162.9625 Cl      1  UNL1       -0.0822
     17 C         142.3809  140.5919  163.5607 C.ar    1  UNL1        0.0015
     18 C         142.8776  139.7740  164.7158 C.ar    1  UNL1        0.0009
     19 C         143.2731  140.4474  165.9965 C.ar    1  UNL1        0.0114
     20 C         143.1719  141.9387  166.1220 C.ar    1  UNL1        0.0577
     21 CL        143.5674  142.6121  167.4027 Cl      1  UNL1       -0.0822
     22 C         142.6751  142.7566  164.9669 C.ar    1  UNL1        0.0114
     23 C         142.2796  142.0831  163.6862 C.ar    1  UNL1        0.0009
     24 N         144.4268  139.9448  158.0664 N.am    1  UNL1       -0.2793
     25 C         144.4266  141.2075  157.2569 C.2     1  UNL1        0.2561
     26 O         143.1279  141.8210  156.8245 O.2     1  UNL1       -0.2721
     27 H         145.2792  139.5421  158.3502 H       1  UNL1        0.1550
     28 C         145.7251  141.8568  156.8797 C.3     1  UNL1        0.2232
     29 O         146.2081  143.0609  157.6326 O.3     1  UNL1       -0.3737
     30 H         145.6040  143.8035  157.4767 H       1  UNL1        0.2111
     31 C         142.5404  138.1455  156.1033 C.2     1  UNL1        0.2322
     32 O         141.6366  138.6707  155.0275 O.2     1  UNL1       -0.2856
     33 C         144.2927  138.4326  154.9428 C.3     1  UNL1        0.0374
     34 C         143.7234  137.2975  155.7410 C.3     1  UNL1        0.1462
     35 C         143.1540  136.1623  156.5393 C.3     1  UNL1        0.0374
     36 O         144.9065  136.4494  155.3787 O.3     1  UNL1       -0.3793
     37 H         144.8144  135.5745  155.7873 H       1  UNL1        0.2108
@<TRIPOS>BOND
     1    33    34    1
     2    34    35    1
     3    34    36    1
     4    34    31    1
     5    31    32    2
     6    31     1    1
     7     1     2   ar
     8     2     3   ar
     9     3     4   ar
    10     4     5   ar
    11     5    10    1
    12    10    11   ar
    13    11    12   ar
    14    12    13   ar
    15    13    14   ar
    16    14    15   ar
    17    15    16    1
    18     5     6   ar
    19     6    17    1
    20    17    18   ar
    21    18    19   ar
    22    19    20   ar
    23    20    21    1
    24    20    22   ar
    25    22    23   ar
    26     6     7   ar
    27     7     8   ar
    28     8     9   ar
    29     9    24    1
    30    24    25   am
    31    25    26    2
    32    25    28    1
    33    28    29    1
    34     9     1   ar
    35     8     3   ar
    36    15    10   ar
    37    23    17   ar
    38    36    37    1
    39    24    27    1
    40    29    30    1
@<TRIPOS>MOLECULE
*****
 37 40 0 0 0
SMALL
GASTEIGER

@<TRIPOS>ATOM
      1 C         142.4743  143.1138  159.8008 C.ar    1  UNL1        0.1973
      2 O         143.1338  143.3927  161.1188 O.2     1  UNL1       -0.4318
      3 C         142.4403  142.5736  162.1667 C.ar    1  UNL1        0.2310
      4 N         142.6590  142.4413  163.6447 N.ar    1  UNL1       -0.2113
      5 C         141.7896  141.5238  164.4523 C.ar    1  UNL1        0.0852
      6 C         140.7014  140.7387  163.7819 C.ar    1  UNL1        0.0180
      7 C         140.4827  140.8710  162.3039 C.ar    1  UNL1        0.0075
      8 C         141.3521  141.7885  161.4963 C.ar    1  UNL1        0.0702
      9 C         141.3732  142.1224  160.0341 C.ar    1  UNL1        0.0929
     10 C         142.0083  141.3914  165.9305 C.ar    1  UNL1        0.0283
     11 C         141.4922  142.4473  166.8625 C.ar    1  UNL1        0.0023
     12 C         141.7110  142.3149  168.3406 C.ar    1  UNL1        0.0001
     13 C         142.4457  141.1267  168.8866 C.ar    1  UNL1        0.0009
     14 C         142.9618  140.0708  167.9544 C.ar    1  UNL1        0.0114
     15 C         142.7431  140.2032  166.4764 C.ar    1  UNL1        0.0591
     16 CL        143.2592  139.1473  165.5443 Cl      1  UNL1       -0.0822
     17 C         139.8320  139.8212  164.5896 C.ar    1  UNL1        0.0015
     18 C         138.8728  140.3880  165.5939 C.ar    1  UNL1        0.0009
     19 C         138.0034  139.4706  166.4016 C.ar    1  UNL1        0.0114
     20 C         138.0931  137.9862  166.2050 C.ar    1  UNL1        0.0577
     21 CL        137.2237  137.0688  167.0127 Cl      1  UNL1       -0.0822
     22 C         139.0523  137.4193  165.2007 C.ar    1  UNL1        0.0114
     23 C         139.9218  138.3368  164.3930 C.ar    1  UNL1        0.0009
     24 N         140.4544  141.5629  158.9887 N.am    1  UNL1       -0.2793
     25 C         139.0630  142.1045  158.8456 C.2     1  UNL1        0.2561
     26 O         138.5902  143.2056  159.7480 O.2     1  UNL1       -0.2721
     27 H         140.7646  140.8403  158.3965 H       1  UNL1        0.1550
     28 C         138.1441  141.5450  157.8003 C.3     1  UNL1        0.2232
     29 O         137.3024  140.3421  158.1076 O.3     1  UNL1       -0.3737
     30 H         137.8766  139.5729  158.2475 H       1  UNL1        0.2111
     31 C         142.8500  143.7199  158.4811 C.2     1  UNL1        0.2322
     32 O         142.5880  145.1739  158.2218 O.2     1  UNL1       -0.2856
     33 C         142.3666  143.2040  156.4811 C.3     1  UNL1        0.0374
     34 C         143.4877  142.8721  157.4207 C.3     1  UNL1        0.1462
     35 C         144.6089  142.5402  158.3603 C.3     1  UNL1        0.0374
     36 O         144.1254  142.0242  156.3603 O.3     1  UNL1       -0.3793
     37 H         144.9464  141.6391  156.7045 H       1  UNL1        0.2108
@<TRIPOS>BOND
     1    33    34    1
     2    34    35    1
     3    34    36    1
     4    34    31    1
     5    31    32    2
     6    31     1    1
     7     1     2   ar
     8     2     3   ar
     9     3     4   ar
    10     4     5   ar
    11     5    10    1
    12    10    11   ar
    13    11    12   ar
    14    12    13   ar
    15    13    14   ar
    16    14    15   ar
    17    15    16    1
    18     5     6   ar
    19     6    17    1
    20    17    18   ar
    21    18    19   ar
    22    19    20   ar
    23    20    21    1
    24    20    22   ar
    25    22    23   ar
    26     6     7   ar
    27     7     8   ar
    28     8     9   ar
    29     9    24    1
    30    24    25   am
    31    25    26    2
    32    25    28    1
    33    28    29    1
    34     9     1   ar
    35     8     3   ar
    36    15    10   ar
    37    23    17   ar
    38    36    37    1
    39    24    27    1
    40    29    30    1
@<TRIPOS>MOLECULE
*****
 37 40 0 0 0
SMALL
GASTEIGER

@<TRIPOS>ATOM
      1 C         142.0783  137.6392  157.6042 C.ar    1  UNL1        0.1973
      2 O         143.1473  137.9682  158.6038 O.2     1  UNL1       -0.4318
      3 C         142.5582  138.8970  159.6237 C.ar    1  UNL1        0.2310
      4 N         143.1416  139.5513  160.8409 N.ar    1  UNL1       -0.2113
      5 C         142.2919  140.4507  161.6889 C.ar    1  UNL1        0.0852
      6 C         140.8588  140.6958  161.3197 C.ar    1  UNL1        0.0180
      7 C         140.2755  140.0415  160.1025 C.ar    1  UNL1        0.0075
      8 C         141.1252  139.1422  159.2545 C.ar    1  UNL1        0.0702
      9 C         140.8286  138.3648  158.0064 C.ar    1  UNL1        0.0929
     10 C         142.8752  141.1050  162.9062 C.ar    1  UNL1        0.0283
     11 C         143.5202  142.4547  162.7958 C.ar    1  UNL1        0.0023
     12 C         144.1035  143.1090  164.0131 C.ar    1  UNL1        0.0001
     13 C         144.0418  142.4135  165.3407 C.ar    1  UNL1        0.0009
     14 C         143.3968  141.0637  165.4510 C.ar    1  UNL1        0.0114
     15 C         142.8135  140.4095  164.2338 C.ar    1  UNL1        0.0591
     16 CL        142.1685  139.0597  164.3441 Cl      1  UNL1       -0.0822
     17 C         140.0091  141.5952  162.1678 C.ar    1  UNL1        0.0015
     18 C         139.2357  141.0279  163.3210 C.ar    1  UNL1        0.0009
     19 C         138.3861  141.9272  164.1691 C.ar    1  UNL1        0.0114
     20 C         138.3097  143.3939  163.8639 C.ar    1  UNL1        0.0577
     21 CL        137.4601  144.2932  164.7119 Cl      1  UNL1       -0.0822
     22 C         139.0831  143.9612  162.7106 C.ar    1  UNL1        0.0114
     23 C         139.9328  143.0618  161.8625 C.ar    1  UNL1        0.0009
     24 N         139.5132  138.3207  157.2868 N.am    1  UNL1       -0.2793
     25 C         139.3302  139.0877  156.0109 C.2     1  UNL1        0.2561
     26 O         140.4626  139.8990  155.4544 O.2     1  UNL1       -0.2721
     27 H         138.7700  137.7883  157.6520 H       1  UNL1        0.1550
     28 C         138.0148  139.0437  155.2913 C.3     1  UNL1        0.2232
     29 O         137.3704  137.7239  154.9866 O.3     1  UNL1       -0.3737
     30 H         137.9185  137.2351  154.3530 H       1  UNL1        0.2111
     31 C         142.2321  136.7422  156.4118 C.2     1  UNL1        0.2322
     32 O         141.0401  136.0192  155.8585 O.2     1  UNL1       -0.2856
     33 C         143.4661  137.9349  155.1650 C.3     1  UNL1        0.0374
     34 C         143.5780  136.5682  155.7728 C.3     1  UNL1        0.1462
     35 C         143.6899  135.2015  156.3807 C.3     1  UNL1        0.0374
     36 O         144.9239  136.3943  155.1338 O.3     1  UNL1       -0.3793
     37 H         145.2822  135.5235  155.3666 H       1  UNL1        0.2108
@<TRIPOS>BOND
     1    33    34    1
     2    34    35    1
     3    34    36    1
     4    34    31    1
     5    31    32    2
     6    31     1    1
     7     1     2   ar
     8     2     3   ar
     9     3     4   ar
    10     4     5   ar
    11     5    10    1
    12    10    11   ar
    13    11    12   ar
    14    12    13   ar
    15    13    14   ar
    16    14    15   ar
    17    15    16    1
    18     5     6   ar
    19     6    17    1
    20    17    18   ar
    21    18    19   ar
    22    19    20   ar
    23    20    21    1
    24    20    22   ar
    25    22    23   ar
    26     6     7   ar
    27     7     8   ar
    28     8     9   ar
    29     9    24    1
    30    24    25   am
    31    25    26    2
    32    25    28    1
    33    28    29    1
    34     9     1   ar
    35     8     3   ar
    36    15    10   ar
    37    23    17   ar
    38    36    37    1
    39    24    27    1
    40    29    30    1
@<TRIPOS>MOLECULE
*****
 37 40 0 0 0
SMALL
GASTEIGER

@<TRIPOS>ATOM
      1 C         144.3841  142.2781  157.5305 C.ar    1  UNL1        0.1973
      2 O         144.5128  141.1639  158.5265 O.2     1  UNL1       -0.4318
      3 C         143.6312  141.4843  159.6971 C.ar    1  UNL1        0.2310
      4 N         143.3548  140.7508  160.9759 N.ar    1  UNL1       -0.2113
      5 C         142.4048  141.3294  161.9821 C.ar    1  UNL1        0.0852
      6 C         141.7312  142.6417  161.7095 C.ar    1  UNL1        0.0180
      7 C         142.0076  143.3752  160.4307 C.ar    1  UNL1        0.0075
      8 C         142.9576  142.7966  159.4245 C.ar    1  UNL1        0.0702
      9 C         143.4229  143.2871  158.0855 C.ar    1  UNL1        0.0929
     10 C         142.1284  140.5959  163.2610 C.ar    1  UNL1        0.0283
     11 C         141.0182  139.5891  163.3233 C.ar    1  UNL1        0.0023
     12 C         140.7418  138.8555  164.6022 C.ar    1  UNL1        0.0001
     13 C         141.5755  139.1288  165.8188 C.ar    1  UNL1        0.0009
     14 C         142.6857  140.1357  165.7565 C.ar    1  UNL1        0.0114
     15 C         142.9621  140.8692  164.4777 C.ar    1  UNL1        0.0591
     16 CL        144.0723  141.8760  164.4154 Cl      1  UNL1       -0.0822
     17 C         140.7811  143.2203  162.7158 C.ar    1  UNL1        0.0015
     18 C         139.3284  142.8488  162.6759 C.ar    1  UNL1        0.0009
     19 C         138.3783  143.4274  163.6821 C.ar    1  UNL1        0.0114
     20 C         138.8810  144.3776  164.7284 C.ar    1  UNL1        0.0577
     21 CL        137.9309  144.9562  165.7347 Cl      1  UNL1       -0.0822
     22 C         140.3337  144.7491  164.7684 C.ar    1  UNL1        0.0114
     23 C         141.2838  144.1704  163.7620 C.ar    1  UNL1        0.0009
     24 N         143.0010  144.5627  157.4185 N.am    1  UNL1       -0.2793
     25 C         141.6653  144.6491  156.7417 C.2     1  UNL1        0.2561
     26 O         140.7512  143.4597  156.7317 O.2     1  UNL1       -0.2721
     27 H         143.6009  145.3433  157.4251 H       1  UNL1        0.1550
     28 C         141.2434  145.9247  156.0748 C.3     1  UNL1        0.2232
     29 O         140.3844  146.9084  156.8127 O.3     1  UNL1       -0.3737
     30 H         139.5130  146.5160  156.9786 H       1  UNL1        0.2111
     31 C         145.0921  142.3675  156.2112 C.2     1  UNL1        0.2322
     32 O         144.4207  143.0262  155.0428 O.2     1  UNL1       -0.2856
     33 C         145.9537  140.8085  155.0592 C.3     1  UNL1        0.0374
     34 C         146.4717  141.7982  156.0603 C.3     1  UNL1        0.1462
     35 C         146.9896  142.7879  157.0613 C.3     1  UNL1        0.0374
     36 O         147.8512  141.2289  155.9093 O.3     1  UNL1       -0.3793
     37 H         148.4644  141.7096  156.4871 H       1  UNL1        0.2108
@<TRIPOS>BOND
     1    33    34    1
     2    34    35    1
     3    34    36    1
     4    34    31    1
     5    31    32    2
     6    31     1    1
     7     1     2   ar
     8     2     3   ar
     9     3     4   ar
    10     4     5   ar
    11     5    10    1
    12    10    11   ar
    13    11    12   ar
    14    12    13   ar
    15    13    14   ar
    16    14    15   ar
    17    15    16    1
    18     5     6   ar
    19     6    17    1
    20    17    18   ar
    21    18    19   ar
    22    19    20   ar
    23    20    21    1
    24    20    22   ar
    25    22    23   ar
    26     6     7   ar
    27     7     8   ar
    28     8     9   ar
    29     9    24    1
    30    24    25   am
    31    25    26    2
    32    25    28    1
    33    28    29    1
    34     9     1   ar
    35     8     3   ar
    36    15    10   ar
    37    23    17   ar
    38    36    37    1
    39    24    27    1
    40    29    30    1
@<TRIPOS>MOLECULE
*****
 37 40 0 0 0
SMALL
GASTEIGER

@<TRIPOS>ATOM
      1 C         144.0438  139.8792  157.3001 C.ar    1  UNL1        0.1973
      2 O         144.4270  140.8657  158.3632 O.2     1  UNL1       -0.4318
      3 C         143.6359  140.5478  159.5973 C.ar    1  UNL1        0.2310
      4 N         143.5971  141.1826  160.9558 N.ar    1  UNL1       -0.2113
      5 C         142.6861  140.6346  162.0139 C.ar    1  UNL1        0.0852
      6 C         141.8140  139.4517  161.7136 C.ar    1  UNL1        0.0180
      7 C         141.8528  138.8168  160.3552 C.ar    1  UNL1        0.0075
      8 C         142.7638  139.3649  159.2970 C.ar    1  UNL1        0.0702
      9 C         143.0159  138.9517  157.8773 C.ar    1  UNL1        0.0929
     10 C         142.6472  141.2694  163.3725 C.ar    1  UNL1        0.0283
     11 C         141.6856  142.3864  163.6511 C.ar    1  UNL1        0.0023
     12 C         141.6467  143.0212  165.0096 C.ar    1  UNL1        0.0001
     13 C         142.5694  142.5390  166.0895 C.ar    1  UNL1        0.0009
     14 C         143.5311  141.4220  165.8108 C.ar    1  UNL1        0.0114
     15 C         143.5699  140.7872  164.4523 C.ar    1  UNL1        0.0591
     16 CL        144.5316  139.6702  164.1736 Cl      1  UNL1       -0.0822
     17 C         140.9030  138.9036  162.7719 C.ar    1  UNL1        0.0015
     18 C         141.3894  137.8271  163.6962 C.ar    1  UNL1        0.0009
     19 C         140.4785  137.2790  164.7544 C.ar    1  UNL1        0.0114
     20 C         139.0810  137.8075  164.8883 C.ar    1  UNL1        0.0577
     21 CL        138.1701  137.2595  165.9465 Cl      1  UNL1       -0.0822
     22 C         138.5946  138.8841  163.9639 C.ar    1  UNL1        0.0114
     23 C         139.5056  139.4321  162.9057 C.ar    1  UNL1        0.0009
     24 N         142.3559  137.8112  157.1605 N.am    1  UNL1       -0.2793
     25 C         140.9503  137.9546  156.6569 C.2     1  UNL1        0.2561
     26 O         140.2046  139.2386  156.8701 O.2     1  UNL1       -0.2721
     27 H         142.8453  136.9686  157.0206 H       1  UNL1        0.1550
     28 C         140.2904  136.8141  155.9402 C.3     1  UNL1        0.2232
     29 O         138.8273  136.5497  156.1386 O.3     1  UNL1       -0.3737
     30 H         138.6693  136.2779  157.0562 H       1  UNL1        0.2111
     31 C         144.5922  139.8291  155.9048 C.2     1  UNL1        0.2322
     32 O         144.9674  138.5119  155.2933 O.2     1  UNL1       -0.2856
     33 C         146.2508  141.0106  155.3108 C.3     1  UNL1        0.0374
     34 C         144.7654  141.0963  155.1211 C.3     1  UNL1        0.1462
     35 C         143.2799  141.1820  154.9314 C.3     1  UNL1        0.0374
     36 O         144.9386  142.3635  154.3373 O.3     1  UNL1       -0.3793
     37 H         144.0703  142.6889  154.0527 H       1  UNL1        0.2108
@<TRIPOS>BOND
     1    33    34    1
     2    34    35    1
     3    34    36    1
     4    34    31    1
     5    31    32    2
     6    31     1    1
     7     1     2   ar
     8     2     3   ar
     9     3     4   ar
    10     4     5   ar
    11     5    10    1
    12    10    11   ar
    13    11    12   ar
    14    12    13   ar
    15    13    14   ar
    16    14    15   ar
    17    15    16    1
    18     5     6   ar
    19     6    17    1
    20    17    18   ar
    21    18    19   ar
    22    19    20   ar
    23    20    21    1
    24    20    22   ar
    25    22    23   ar
    26     6     7   ar
    27     7     8   ar
    28     8     9   ar
    29     9    24    1
    30    24    25   am
    31    25    26    2
    32    25    28    1
    33    28    29    1
    34     9     1   ar
    35     8     3   ar
    36    15    10   ar
    37    23    17   ar
    38    36    37    1
    39    24    27    1
    40    29    30    1
@<TRIPOS>MOLECULE
*****
 37 40 0 0 0
SMALL
GASTEIGER

@<TRIPOS>ATOM
      1 C         137.5754  141.2239  157.3520 C.ar    1  UNL1        0.1973
      2 O         137.0773  140.2801  158.4062 O.2     1  UNL1       -0.4318
      3 C         137.9178  140.4710  159.6339 C.ar    1  UNL1        0.2310
      4 N         137.8880  139.8152  160.9825 N.ar    1  UNL1       -0.2113
      5 C         138.8758  140.2210  162.0358 C.ar    1  UNL1        0.0852
      6 C         139.8934  141.2827  161.7404 C.ar    1  UNL1        0.0180
      7 C         139.9232  141.9386  160.3917 C.ar    1  UNL1        0.0075
      8 C         138.9354  141.5327  159.3385 C.ar    1  UNL1        0.0702
      9 C         138.7238  141.9980  157.9282 C.ar    1  UNL1        0.0929
     10 C         138.8460  139.5652  163.3846 C.ar    1  UNL1        0.0283
     11 C         138.1117  140.2162  164.5190 C.ar    1  UNL1        0.0023
     12 C         138.0819  139.5603  165.8678 C.ar    1  UNL1        0.0001
     13 C         138.7865  138.2536  166.0820 C.ar    1  UNL1        0.0009
     14 C         139.5209  137.6026  164.9475 C.ar    1  UNL1        0.0114
     15 C         139.5506  138.2585  163.5988 C.ar    1  UNL1        0.0591
     16 CL        140.2850  137.6075  162.4643 Cl      1  UNL1       -0.0822
     17 C         140.8812  141.6886  162.7938 C.ar    1  UNL1        0.0015
     18 C         142.1564  140.9172  162.9632 C.ar    1  UNL1        0.0009
     19 C         143.1443  141.3230  164.0165 C.ar    1  UNL1        0.0114
     20 C         142.8569  142.5003  164.9004 C.ar    1  UNL1        0.0577
     21 CL        143.8447  142.9061  165.9537 Cl      1  UNL1       -0.0822
     22 C         141.5817  143.2718  164.7310 C.ar    1  UNL1        0.0114
     23 C         140.5939  142.8659  163.6777 C.ar    1  UNL1        0.0009
     24 N         139.5207  143.0523  157.2188 N.am    1  UNL1       -0.2793
     25 C         140.9245  142.7616  156.7778 C.2     1  UNL1        0.2561
     26 O         141.5317  141.4164  157.0464 O.2     1  UNL1       -0.2721
     27 H         139.1222  143.9352  157.0425 H       1  UNL1        0.1550
     28 C         141.7214  143.8159  156.0684 C.3     1  UNL1        0.2232
     29 O         142.8216  144.5368  156.7896 O.3     1  UNL1       -0.3737
     30 H         142.4429  145.0727  157.5039 H       1  UNL1        0.2111
     31 C         137.0223  141.3682  155.9652 C.2     1  UNL1        0.2322
     32 O         137.2334  142.6423  155.2024 O.2     1  UNL1       -0.2856
     33 C         137.5488  139.5737  154.9640 C.3     1  UNL1        0.0374
     34 C         136.2581  140.2383  155.3413 C.3     1  UNL1        0.1462
     35 C         134.9674  140.9030  155.7185 C.3     1  UNL1        0.0374
     36 O         135.4939  139.1084  154.7172 O.3     1  UNL1       -0.3793
     37 H         134.5422  139.2700  154.8127 H       1  UNL1        0.2108
@<TRIPOS>BOND
     1    33    34    1
     2    34    35    1
     3    34    36    1
     4    34    31    1
     5    31    32    2
     6    31     1    1
     7     1     2   ar
     8     2     3   ar
     9     3     4   ar
    10     4     5   ar
    11     5    10    1
    12    10    11   ar
    13    11    12   ar
    14    12    13   ar
    15    13    14   ar
    16    14    15   ar
    17    15    16    1
    18     5     6   ar
    19     6    17    1
    20    17    18   ar
    21    18    19   ar
    22    19    20   ar
    23    20    21    1
    24    20    22   ar
    25    22    23   ar
    26     6     7   ar
    27     7     8   ar
    28     8     9   ar
    29     9    24    1
    30    24    25   am
    31    25    26    2
    32    25    28    1
    33    28    29    1
    34     9     1   ar
    35     8     3   ar
    36    15    10   ar
    37    23    17   ar
    38    36    37    1
    39    24    27    1
    40    29    30    1
@<TRIPOS>MOLECULE
*****
 37 40 0 0 0
SMALL
GASTEIGER

@<TRIPOS>ATOM
      1 C         138.5363  141.1466  157.1115 C.ar    1  UNL1        0.1973
      2 O         137.8701  140.2573  158.1191 O.2     1  UNL1       -0.4318
      3 C         138.5722  140.4374  159.4324 C.ar    1  UNL1        0.2310
      4 N         138.3518  139.8195  160.7813 N.ar    1  UNL1       -0.2113
      5 C         139.2317  140.2022  161.9342 C.ar    1  UNL1        0.0852
      6 C         140.3318  141.2028  161.7383 C.ar    1  UNL1        0.0180
      7 C         140.5522  141.8207  160.3894 C.ar    1  UNL1        0.0075
      8 C         139.6723  141.4380  159.2364 C.ar    1  UNL1        0.0702
      9 C         139.6501  141.8763  157.8020 C.ar    1  UNL1        0.0929
     10 C         139.0114  139.5843  163.2832 C.ar    1  UNL1        0.0283
     11 C         139.5798  138.2305  163.5900 C.ar    1  UNL1        0.0023
     12 C         139.3595  137.6126  164.9390 C.ar    1  UNL1        0.0001
     13 C         138.5707  138.3486  165.9812 C.ar    1  UNL1        0.0009
     14 C         138.0022  139.7024  165.6744 C.ar    1  UNL1        0.0114
     15 C         138.2226  140.3202  164.3254 C.ar    1  UNL1        0.0591
     16 CL        137.6541  141.6740  164.0187 Cl      1  UNL1       -0.0822
     17 C         141.2117  141.5855  162.8913 C.ar    1  UNL1        0.0015
     18 C         140.9393  142.8468  163.6562 C.ar    1  UNL1        0.0009
     19 C         141.8191  143.2295  164.8092 C.ar    1  UNL1        0.0114
     20 C         142.9713  142.3510  165.1974 C.ar    1  UNL1        0.0577
     21 CL        143.8511  142.7337  166.3504 Cl      1  UNL1       -0.0822
     22 C         143.2437  141.0897  164.4325 C.ar    1  UNL1        0.0114
     23 C         142.3638  140.7070  163.2795 C.ar    1  UNL1        0.0009
     24 N         140.5788  142.8699  157.1693 N.am    1  UNL1       -0.2793
     25 C         140.5695  144.2996  157.6227 C.2     1  UNL1        0.2561
     26 O         139.6314  144.7359  158.7089 O.2     1  UNL1       -0.2721
     27 H         141.1945  142.5836  156.4564 H       1  UNL1        0.1550
     28 C         141.4982  145.2932  156.9900 C.3     1  UNL1        0.2232
     29 O         142.6242  145.8811  157.7878 O.3     1  UNL1       -0.3737
     30 H         142.2628  146.4288  158.5022 H       1  UNL1        0.2111
     31 C         138.1555  141.2824  155.6670 C.2     1  UNL1        0.2322
     32 O         139.2177  141.2797  154.6079 O.2     1  UNL1       -0.2856
     33 C         136.7275  142.8493  155.7387 C.3     1  UNL1        0.0374
     34 C         136.7125  141.4208  155.2816 C.3     1  UNL1        0.1462
     35 C         136.6976  139.9923  154.8244 C.3     1  UNL1        0.0374
     36 O         135.2695  141.5593  154.8961 O.3     1  UNL1       -0.3793
     37 H         134.9493  140.7181  154.5343 H       1  UNL1        0.2108
@<TRIPOS>BOND
     1    33    34    1
     2    34    35    1
     3    34    36    1
     4    34    31    1
     5    31    32    2
     6    31     1    1
     7     1     2   ar
     8     2     3   ar
     9     3     4   ar
    10     4     5   ar
    11     5    10    1
    12    10    11   ar
    13    11    12   ar
    14    12    13   ar
    15    13    14   ar
    16    14    15   ar
    17    15    16    1
    18     5     6   ar
    19     6    17    1
    20    17    18   ar
    21    18    19   ar
    22    19    20   ar
    23    20    21    1
    24    20    22   ar
    25    22    23   ar
    26     6     7   ar
    27     7     8   ar
    28     8     9   ar
    29     9    24    1
    30    24    25   am
    31    25    26    2
    32    25    28    1
    33    28    29    1
    34     9     1   ar
    35     8     3   ar
    36    15    10   ar
    37    23    17   ar
    38    36    37    1
    39    24    27    1
    40    29    30    1
