@<TRIPOS>MOLECULE
*****
 35 38 0 0 0
SMALL
GASTEIGER

@<TRIPOS>ATOM
      1 C         138.8578  142.6313  164.8492 C.3     1  UNL1        0.0188
      2 C         138.6844  141.1607  165.0879 C.3     1  UNL1        0.0188
      3 C         139.2885  140.5218  166.3032 C.3     1  UNL1        0.0724
      4 N         140.0660  141.3536  167.2797 N.3     1  UNL1       -0.2704
      5 C         140.2393  142.8243  167.0410 C.3     1  UNL1        0.0724
      6 C         139.6352  143.4631  165.8258 C.3     1  UNL1        0.0188
      7 C         140.6701  140.7146  168.4950 C.3     1  UNL1        0.0815
      8 C         139.3172  140.2119  168.9033 C.3     1  UNL1        0.0221
      9 C         141.2743  140.0757  169.7102 C.2     1  UNL1        0.0635
     10 O         141.0345  139.2990  170.2650 O.co2   1  UNL1       -0.5478
     11 O         142.5218  140.6472  170.3163 O.co2   1  UNL1       -0.5478
     12 C         142.0231  141.2173  168.0867 C.3     1  UNL1        0.0463
     13 C         142.7169  140.6219  166.8975 C.ar    1  UNL1       -0.0204
     14 C         143.2907  141.5160  165.8386 C.ar    1  UNL1       -0.0019
     15 C         143.9846  140.9206  164.6494 C.ar    1  UNL1        0.0293
     16 C         144.1046  139.4311  164.5192 C.ar    1  UNL1        0.1401
     17 F         144.7985  138.8357  163.3301 F       1  UNL1       -0.2042
     18 C         143.5308  138.5370  165.5782 C.ar    1  UNL1        0.0293
     19 C         142.8370  139.1324  166.7673 C.ar    1  UNL1       -0.0019
     20 C         138.2536  143.2703  163.6340 C.3     1  UNL1        0.0721
     21 C         140.9135  145.0448  160.4675 C.3     1  UNL1        0.1687
     22 C         140.1261  145.9427  161.3752 C.3     1  UNL1        0.0609
     23 C         139.2395  145.3512  162.4306 C.3     1  UNL1        0.0758
     24 N         139.1403  143.8618  162.5785 N.3     1  UNL1       -0.2724
     25 C         139.9277  142.9639  161.6709 C.3     1  UNL1        0.0758
     26 C         140.8143  143.5554  160.6154 C.3     1  UNL1        0.0609
     27 O         141.8002  145.6362  159.4121 O.3     1  UNL1       -0.4791
     28 C         138.6286  146.6686  155.4277 C.3     1  UNL1        0.0320
     29 C         139.8580  146.0024  155.9706 C.ar    1  UNL1       -0.0083
     30 C         140.2144  146.1524  157.4198 C.ar    1  UNL1        0.0335
     31 C         141.4438  145.4862  157.9627 C.ar    1  UNL1        0.1381
     32 C         142.3167  144.6699  157.0563 C.ar    1  UNL1        0.0377
     33 C         141.9603  144.5199  155.6071 C.ar    1  UNL1        0.0142
     34 C         140.7310  145.1861  155.0642 C.ar    1  UNL1        0.0539
     35 CL        140.3746  145.0360  153.6148 Cl      1  UNL1       -0.0826
@<TRIPOS>UNITY_ATOM_ATTR
10 1
charge -1
@<TRIPOS>BOND
     1    28    29    1
     2    29    30   ar
     3    30    31   ar
     4    31    27    1
     5    27    21    1
     6    21    22    1
     7    22    23    1
     8    23    24    1
     9    24    20    1
    10    20     1    1
    11     1     2    1
    12     2     3    1
    13     3     4    1
    14     4     7    1
    15     7     8    1
    16     7    12    1
    17    12    13    1
    18    13    14   ar
    19    14    15   ar
    20    15    16   ar
    21    16    17    1
    22    16    18   ar
    23    18    19   ar
    24     7     9    1
    25     9    10   ar
    26     9    11   ar
    27     4     5    1
    28     5     6    1
    29    24    25    1
    30    25    26    1
    31    31    32   ar
    32    32    33   ar
    33    33    34   ar
    34    34    35    1
    35    34    29   ar
    36    26    21    1
    37     6     1    1
    38    19    13   ar
@<TRIPOS>MOLECULE
*****
 35 38 0 0 0
SMALL
GASTEIGER

@<TRIPOS>ATOM
      1 C         142.4988  138.3843  163.0688 C.3     1  UNL1        0.0188
      2 C         142.7873  138.7211  164.5017 C.3     1  UNL1        0.0188
      3 C         141.6654  138.7988  165.4943 C.3     1  UNL1        0.0724
      4 N         140.2551  138.5397  165.0540 N.3     1  UNL1       -0.2704
      5 C         139.9666  138.2029  163.6211 C.3     1  UNL1        0.0724
      6 C         141.0885  138.1252  162.6285 C.3     1  UNL1        0.0188
      7 C         139.1332  138.6175  166.0467 C.3     1  UNL1        0.0815
      8 C         138.6283  137.2841  165.5806 C.3     1  UNL1        0.0221
      9 C         138.0114  138.6952  167.0394 C.2     1  UNL1        0.0635
     10 O         137.0580  138.4523  167.0142 O.co2   1  UNL1       -0.5478
     11 O         138.2616  139.2451  168.4124 O.co2   1  UNL1       -0.5478
     12 C         139.6380  139.9508  166.5128 C.3     1  UNL1        0.0463
     13 C         139.2828  141.1946  165.7532 C.ar    1  UNL1       -0.0204
     14 C         140.0735  142.4521  165.9613 C.ar    1  UNL1       -0.0019
     15 C         139.7182  143.6959  165.2018 C.ar    1  UNL1        0.0293
     16 C         138.5722  143.6821  164.2341 C.ar    1  UNL1        0.1401
     17 F         138.2169  144.9258  163.4746 F       1  UNL1       -0.2042
     18 C         137.7814  142.4245  164.0260 C.ar    1  UNL1        0.0293
     19 C         138.1367  141.1808  164.7855 C.ar    1  UNL1       -0.0019
     20 C         143.6207  138.3066  162.0760 C.3     1  UNL1        0.0721
     21 C         144.1029  141.5259  158.9691 C.3     1  UNL1        0.1687
     22 C         143.7190  140.1360  158.5556 C.3     1  UNL1        0.0609
     23 C         143.5583  139.0629  159.5912 C.3     1  UNL1        0.0758
     24 N         143.7814  139.3797  161.0404 N.3     1  UNL1       -0.2724
     25 C         144.1652  140.7695  161.4538 C.3     1  UNL1        0.0758
     26 C         144.3260  141.8426  160.4182 C.3     1  UNL1        0.0609
     27 O         144.2636  142.5991  157.9334 O.3     1  UNL1       -0.4791
     28 C         148.8326  141.8188  155.5849 C.3     1  UNL1        0.0320
     29 C         147.3389  141.9370  155.5139 C.ar    1  UNL1       -0.0083
     30 C         146.5481  142.2089  156.7591 C.ar    1  UNL1        0.0335
     31 C         145.0544  142.3271  156.6881 C.ar    1  UNL1        0.1381
     32 C         144.3516  142.1734  155.3720 C.ar    1  UNL1        0.0377
     33 C         145.1425  141.9015  154.1267 C.ar    1  UNL1        0.0142
     34 C         146.6361  141.7833  154.1977 C.ar    1  UNL1        0.0539
     35 CL        147.4270  141.5114  152.9524 Cl      1  UNL1       -0.0826
@<TRIPOS>UNITY_ATOM_ATTR
10 1
charge -1
@<TRIPOS>BOND
     1    28    29    1
     2    29    30   ar
     3    30    31   ar
     4    31    27    1
     5    27    21    1
     6    21    22    1
     7    22    23    1
     8    23    24    1
     9    24    20    1
    10    20     1    1
    11     1     2    1
    12     2     3    1
    13     3     4    1
    14     4     7    1
    15     7     8    1
    16     7    12    1
    17    12    13    1
    18    13    14   ar
    19    14    15   ar
    20    15    16   ar
    21    16    17    1
    22    16    18   ar
    23    18    19   ar
    24     7     9    1
    25     9    10   ar
    26     9    11   ar
    27     4     5    1
    28     5     6    1
    29    24    25    1
    30    25    26    1
    31    31    32   ar
    32    32    33   ar
    33    33    34   ar
    34    34    35    1
    35    34    29   ar
    36    26    21    1
    37     6     1    1
    38    19    13   ar
@<TRIPOS>MOLECULE
*****
 35 38 0 0 0
SMALL
GASTEIGER

@<TRIPOS>ATOM
      1 C         142.7397  143.0250  164.9770 C.3     1  UNL1        0.0188
      2 C         143.5270  142.5365  166.1565 C.3     1  UNL1        0.0188
      3 C         142.8233  142.1806  167.4325 C.3     1  UNL1        0.0724
      4 N         141.3323  142.3132  167.5289 N.3     1  UNL1       -0.2704
      5 C         140.5450  142.8017  166.3493 C.3     1  UNL1        0.0724
      6 C         141.2487  143.1576  165.0733 C.3     1  UNL1        0.0188
      7 C         140.6286  141.9573  168.8049 C.3     1  UNL1        0.0815
      8 C         140.2792  143.4008  169.0149 C.3     1  UNL1        0.0221
      9 C         139.9249  141.6014  170.0809 C.2     1  UNL1        0.0635
     10 O         138.9803  141.5719  170.3555 O.co2   1  UNL1       -0.5478
     11 O         140.7179  141.1796  171.2823 O.co2   1  UNL1       -0.5478
     12 C         140.9779  140.5138  168.5949 C.3     1  UNL1        0.0463
     13 C         140.3783  139.7563  167.4473 C.ar    1  UNL1       -0.0204
     14 C         138.8945  139.5474  167.3802 C.ar    1  UNL1       -0.0019
     15 C         138.2949  138.7898  166.2327 C.ar    1  UNL1        0.0293
     16 C         139.1792  138.2413  165.1524 C.ar    1  UNL1        0.1401
     17 F         138.5796  137.4838  164.0049 F       1  UNL1       -0.2042
     18 C         140.6631  138.4502  165.2196 C.ar    1  UNL1        0.0293
     19 C         141.2626  139.2077  166.3670 C.ar    1  UNL1       -0.0019
     20 C         143.4434  143.3809  163.7009 C.3     1  UNL1        0.0721
     21 C         143.8738  140.3125  160.4375 C.3     1  UNL1        0.1687
     22 C         143.8811  141.7738  160.0987 C.3     1  UNL1        0.0609
     23 C         143.7376  142.7966  161.1865 C.3     1  UNL1        0.0758
     24 N         143.5869  142.3581  162.6131 N.3     1  UNL1       -0.2724
     25 C         143.5796  140.8969  162.9519 C.3     1  UNL1        0.0758
     26 C         143.7231  139.8741  161.8641 C.3     1  UNL1        0.0609
     27 O         144.0173  139.2897  159.3498 O.3     1  UNL1       -0.4791
     28 C         141.7625  135.9420  156.0773 C.3     1  UNL1        0.0320
     29 C         141.6829  137.1609  156.9479 C.ar    1  UNL1       -0.0083
     30 C         142.8899  137.6158  157.7135 C.ar    1  UNL1        0.0335
     31 C         142.8103  138.8348  158.5841 C.ar    1  UNL1        0.1381
     32 C         141.5237  139.5987  158.6890 C.ar    1  UNL1        0.0377
     33 C         140.3167  139.1438  157.9234 C.ar    1  UNL1        0.0142
     34 C         140.3964  137.9249  157.0528 C.ar    1  UNL1        0.0539
     35 CL        139.1893  137.4699  156.2872 Cl      1  UNL1       -0.0826
@<TRIPOS>UNITY_ATOM_ATTR
10 1
charge -1
@<TRIPOS>BOND
     1    28    29    1
     2    29    30   ar
     3    30    31   ar
     4    31    27    1
     5    27    21    1
     6    21    22    1
     7    22    23    1
     8    23    24    1
     9    24    20    1
    10    20     1    1
    11     1     2    1
    12     2     3    1
    13     3     4    1
    14     4     7    1
    15     7     8    1
    16     7    12    1
    17    12    13    1
    18    13    14   ar
    19    14    15   ar
    20    15    16   ar
    21    16    17    1
    22    16    18   ar
    23    18    19   ar
    24     7     9    1
    25     9    10   ar
    26     9    11   ar
    27     4     5    1
    28     5     6    1
    29    24    25    1
    30    25    26    1
    31    31    32   ar
    32    32    33   ar
    33    33    34   ar
    34    34    35    1
    35    34    29   ar
    36    26    21    1
    37     6     1    1
    38    19    13   ar
@<TRIPOS>MOLECULE
*****
 35 38 0 0 0
SMALL
GASTEIGER

@<TRIPOS>ATOM
      1 C         140.3790  138.3633  165.1420 C.3     1  UNL1        0.0188
      2 C         139.0767  138.9468  165.6040 C.3     1  UNL1        0.0188
      3 C         139.0640  140.0037  166.6683 C.3     1  UNL1        0.0724
      4 N         140.3537  140.4770  167.2707 N.3     1  UNL1       -0.2704
      5 C         141.6560  139.8935  166.8087 C.3     1  UNL1        0.0724
      6 C         141.6686  138.8366  165.7444 C.3     1  UNL1        0.0188
      7 C         140.3409  141.5340  168.3350 C.3     1  UNL1        0.0815
      8 C         139.5657  140.6182  169.2352 C.3     1  UNL1        0.0221
      9 C         140.3282  142.5909  169.3993 C.2     1  UNL1        0.0635
     10 O         140.8291  143.4264  169.5392 O.co2   1  UNL1       -0.5478
     11 O         139.3920  142.4702  170.5651 O.co2   1  UNL1       -0.5478
     12 C         141.1161  142.4498  167.4348 C.3     1  UNL1        0.0463
     13 C         140.4397  143.1010  166.2650 C.ar    1  UNL1       -0.0204
     14 C         140.9113  142.8134  164.8705 C.ar    1  UNL1       -0.0019
     15 C         140.2349  143.4646  163.7007 C.ar    1  UNL1        0.0293
     16 C         139.0868  144.4034  163.9255 C.ar    1  UNL1        0.1401
     17 F         138.4103  145.0546  162.7558 F       1  UNL1       -0.2042
     18 C         138.6151  144.6910  165.3201 C.ar    1  UNL1        0.0293
     19 C         139.2916  144.0398  166.4899 C.ar    1  UNL1       -0.0019
     20 C         140.3918  137.3063  164.0777 C.3     1  UNL1        0.0721
     21 C         140.9765  138.4605  159.7677 C.3     1  UNL1        0.1687
     22 C         142.1644  138.1440  160.6272 C.3     1  UNL1        0.0609
     23 C         141.9695  137.7593  162.0638 C.3     1  UNL1        0.0758
     24 N         140.5867  137.6911  162.6410 N.3     1  UNL1       -0.2724
     25 C         139.3988  138.0076  161.7815 C.3     1  UNL1        0.0758
     26 C         139.5937  138.3923  160.3449 C.3     1  UNL1        0.0609
     27 O         141.1714  138.8452  158.3310 O.3     1  UNL1       -0.4791
     28 C         143.7526  135.0416  155.9083 C.3     1  UNL1        0.0320
     29 C         142.5200  135.8828  156.0605 C.ar    1  UNL1       -0.0083
     30 C         142.4619  136.9434  157.1196 C.ar    1  UNL1        0.0335
     31 C         141.2294  137.7846  157.2718 C.ar    1  UNL1        0.1381
     32 C         140.0550  137.5653  156.3649 C.ar    1  UNL1        0.0377
     33 C         140.1131  136.5047  155.3058 C.ar    1  UNL1        0.0142
     34 C         141.3456  135.6635  155.1536 C.ar    1  UNL1        0.0539
     35 CL        141.4036  134.6029  154.0944 Cl      1  UNL1       -0.0826
@<TRIPOS>UNITY_ATOM_ATTR
10 1
charge -1
@<TRIPOS>BOND
     1    28    29    1
     2    29    30   ar
     3    30    31   ar
     4    31    27    1
     5    27    21    1
     6    21    22    1
     7    22    23    1
     8    23    24    1
     9    24    20    1
    10    20     1    1
    11     1     2    1
    12     2     3    1
    13     3     4    1
    14     4     7    1
    15     7     8    1
    16     7    12    1
    17    12    13    1
    18    13    14   ar
    19    14    15   ar
    20    15    16   ar
    21    16    17    1
    22    16    18   ar
    23    18    19   ar
    24     7     9    1
    25     9    10   ar
    26     9    11   ar
    27     4     5    1
    28     5     6    1
    29    24    25    1
    30    25    26    1
    31    31    32   ar
    32    32    33   ar
    33    33    34   ar
    34    34    35    1
    35    34    29   ar
    36    26    21    1
    37     6     1    1
    38    19    13   ar
@<TRIPOS>MOLECULE
*****
 35 38 0 0 0
SMALL
GASTEIGER

@<TRIPOS>ATOM
      1 C         141.1483  138.2299  164.9613 C.3     1  UNL1        0.0188
      2 C         140.0694  139.0900  165.5498 C.3     1  UNL1        0.0188
      3 C         140.4057  140.0907  166.6153 C.3     1  UNL1        0.0724
      4 N         141.8208  140.2313  167.0925 N.3     1  UNL1       -0.2704
      5 C         142.8997  139.3712  166.5041 C.3     1  UNL1        0.0724
      6 C         142.5634  138.3705  165.4385 C.3     1  UNL1        0.0188
      7 C         142.1571  141.2320  168.1581 C.3     1  UNL1        0.0815
      8 C         142.7177  140.1340  169.0125 C.3     1  UNL1        0.0221
      9 C         142.4933  142.2328  169.2237 C.2     1  UNL1        0.0635
     10 O         141.9568  142.7876  169.8343 O.co2   1  UNL1       -0.5478
     11 O         143.9272  142.5521  169.5272 O.co2   1  UNL1       -0.5478
     12 C         141.5964  142.3301  167.3038 C.3     1  UNL1        0.0463
     13 C         142.3537  142.8036  166.0986 C.ar    1  UNL1       -0.0204
     14 C         143.8503  142.8941  166.1411 C.ar    1  UNL1       -0.0019
     15 C         144.6076  143.3676  164.9358 C.ar    1  UNL1        0.0293
     16 C         143.8681  143.7505  163.6882 C.ar    1  UNL1        0.1401
     17 F         144.6253  144.2240  162.4831 F       1  UNL1       -0.2042
     18 C         142.3714  143.6599  163.6458 C.ar    1  UNL1        0.0293
     19 C         141.6143  143.1865  164.8510 C.ar    1  UNL1       -0.0019
     20 C         140.8120  137.2292  163.8957 C.3     1  UNL1        0.0721
     21 C         140.8110  138.4647  159.5686 C.3     1  UNL1        0.1687
     22 C         139.5137  138.3209  160.3079 C.3     1  UNL1        0.0609
     23 C         139.5140  137.9091  161.7502 C.3     1  UNL1        0.0758
     24 N         140.8117  137.6410  162.4533 N.3     1  UNL1       -0.2724
     25 C         142.1089  137.7848  161.7141 C.3     1  UNL1        0.0758
     26 C         142.1086  138.1966  160.2717 C.3     1  UNL1        0.0609
     27 O         140.8107  138.8765  158.1263 O.3     1  UNL1       -0.4791
     28 C         144.0500  135.8107  155.4603 C.3     1  UNL1        0.0320
     29 C         142.6637  136.3207  155.7212 C.ar    1  UNL1       -0.0083
     30 C         142.4303  137.3436  156.7932 C.ar    1  UNL1        0.0335
     31 C         141.0440  137.8536  157.0542 C.ar    1  UNL1        0.1381
     32 C         139.8912  137.3409  156.2431 C.ar    1  UNL1        0.0377
     33 C         140.1246  136.3180  155.1711 C.ar    1  UNL1        0.0142
     34 C         141.5108  135.8080  154.9101 C.ar    1  UNL1        0.0539
     35 CL        141.7442  134.7851  153.8380 Cl      1  UNL1       -0.0826
@<TRIPOS>UNITY_ATOM_ATTR
10 1
charge -1
@<TRIPOS>BOND
     1    28    29    1
     2    29    30   ar
     3    30    31   ar
     4    31    27    1
     5    27    21    1
     6    21    22    1
     7    22    23    1
     8    23    24    1
     9    24    20    1
    10    20     1    1
    11     1     2    1
    12     2     3    1
    13     3     4    1
    14     4     7    1
    15     7     8    1
    16     7    12    1
    17    12    13    1
    18    13    14   ar
    19    14    15   ar
    20    15    16   ar
    21    16    17    1
    22    16    18   ar
    23    18    19   ar
    24     7     9    1
    25     9    10   ar
    26     9    11   ar
    27     4     5    1
    28     5     6    1
    29    24    25    1
    30    25    26    1
    31    31    32   ar
    32    32    33   ar
    33    33    34   ar
    34    34    35    1
    35    34    29   ar
    36    26    21    1
    37     6     1    1
    38    19    13   ar
@<TRIPOS>MOLECULE
*****
 35 38 0 0 0
SMALL
GASTEIGER

@<TRIPOS>ATOM
      1 C         139.1437  139.4010  160.4922 C.3     1  UNL1        0.0188
      2 C         139.4690  140.6112  161.3165 C.3     1  UNL1        0.0188
      3 C         139.3622  140.5512  162.8114 C.3     1  UNL1        0.0724
      4 N         138.9301  139.2810  163.4821 N.3     1  UNL1       -0.2704
      5 C         138.6048  138.0708  162.6578 C.3     1  UNL1        0.0724
      6 C         138.7116  138.1308  161.1629 C.3     1  UNL1        0.0188
      7 C         138.8234  139.2210  164.9772 C.3     1  UNL1        0.0815
      8 C         137.8132  140.3295  164.9495 C.3     1  UNL1        0.0221
      9 C         138.7167  139.1611  166.4721 C.2     1  UNL1        0.0635
     10 O         139.1085  139.6853  167.2072 O.co2   1  UNL1       -0.5478
     11 O         137.8550  138.1189  167.1213 O.co2   1  UNL1       -0.5478
     12 C         139.8336  138.1126  165.0048 C.3     1  UNL1        0.0463
     13 C         141.2934  138.4243  164.8571 C.ar    1  UNL1       -0.0204
     14 C         142.0705  138.9488  166.0280 C.ar    1  UNL1       -0.0019
     15 C         143.5304  139.2606  165.8803 C.ar    1  UNL1        0.0293
     16 C         144.2130  139.0478  164.5616 C.ar    1  UNL1        0.1401
     17 F         145.6728  139.3596  164.4139 F       1  UNL1       -0.2042
     18 C         143.4358  138.5233  163.3907 C.ar    1  UNL1        0.0293
     19 C         141.9761  138.2116  163.5385 C.ar    1  UNL1       -0.0019
     20 C         139.2504  139.4609  158.9971 C.3     1  UNL1        0.0721
     21 C         142.2082  136.8393  156.8458 C.3     1  UNL1        0.1687
     22 C         140.8019  136.9572  156.3373 C.3     1  UNL1        0.0609
     23 C         139.8160  137.8311  157.0545 C.3     1  UNL1        0.0758
     24 N         140.2364  138.5871  158.2800 N.3     1  UNL1       -0.2724
     25 C         141.6426  138.4691  158.7884 C.3     1  UNL1        0.0758
     26 C         142.6285  137.5952  158.0712 C.3     1  UNL1        0.0609
     27 O         143.1941  135.9654  156.1286 O.3     1  UNL1       -0.4791
     28 C         145.0172  131.4732  157.9986 C.3     1  UNL1        0.0320
     29 C         144.0099  132.2270  157.1818 C.ar    1  UNL1       -0.0083
     30 C         144.1057  133.7192  157.0636 C.ar    1  UNL1        0.0335
     31 C         143.0984  134.4730  156.2468 C.ar    1  UNL1        0.1381
     32 C         141.9954  133.7346  155.5482 C.ar    1  UNL1        0.0377
     33 C         141.8997  132.2424  155.6664 C.ar    1  UNL1        0.0142
     34 C         142.9070  131.4886  156.4831 C.ar    1  UNL1        0.0539
     35 CL        142.8112  129.9962  156.6013 Cl      1  UNL1       -0.0826
@<TRIPOS>UNITY_ATOM_ATTR
10 1
charge -1
@<TRIPOS>BOND
     1    28    29    1
     2    29    30   ar
     3    30    31   ar
     4    31    27    1
     5    27    21    1
     6    21    22    1
     7    22    23    1
     8    23    24    1
     9    24    20    1
    10    20     1    1
    11     1     2    1
    12     2     3    1
    13     3     4    1
    14     4     7    1
    15     7     8    1
    16     7    12    1
    17    12    13    1
    18    13    14   ar
    19    14    15   ar
    20    15    16   ar
    21    16    17    1
    22    16    18   ar
    23    18    19   ar
    24     7     9    1
    25     9    10   ar
    26     9    11   ar
    27     4     5    1
    28     5     6    1
    29    24    25    1
    30    25    26    1
    31    31    32   ar
    32    32    33   ar
    33    33    34   ar
    34    34    35    1
    35    34    29   ar
    36    26    21    1
    37     6     1    1
    38    19    13   ar
@<TRIPOS>MOLECULE
*****
 35 38 0 0 0
SMALL
GASTEIGER

@<TRIPOS>ATOM
      1 C         142.4798  143.1037  165.2080 C.3     1  UNL1        0.0188
      2 C         140.9987  143.2129  165.4186 C.3     1  UNL1        0.0188
      3 C         140.3865  142.7364  166.7023 C.3     1  UNL1        0.0724
      4 N         141.2555  142.1507  167.7756 N.3     1  UNL1       -0.2704
      5 C         142.7366  142.0414  167.5651 C.3     1  UNL1        0.0724
      6 C         143.3487  142.5180  166.2813 C.3     1  UNL1        0.0188
      7 C         140.6432  141.6741  169.0594 C.3     1  UNL1        0.0815
      8 C         140.3243  143.0913  169.4334 C.3     1  UNL1        0.0221
      9 C         140.0310  141.1976  170.3432 C.2     1  UNL1        0.0635
     10 O         139.1984  140.7240  170.5692 O.co2   1  UNL1       -0.5478
     11 O         140.7406  141.4298  171.6442 O.co2   1  UNL1       -0.5478
     12 C         140.9621  140.2570  168.6854 C.3     1  UNL1        0.0463
     13 C         140.3401  139.6452  167.4652 C.ar    1  UNL1       -0.0204
     14 C         138.8494  139.5073  167.3722 C.ar    1  UNL1       -0.0019
     15 C         138.2274  138.8955  166.1519 C.ar    1  UNL1        0.0293
     16 C         139.0962  138.4216  165.0247 C.ar    1  UNL1        0.1401
     17 F         138.4744  137.8098  163.8045 F       1  UNL1       -0.2042
     18 C         140.5870  138.5595  165.1178 C.ar    1  UNL1        0.0293
     19 C         141.2089  139.1712  166.3380 C.ar    1  UNL1       -0.0019
     20 C         143.0921  143.5802  163.9242 C.3     1  UNL1        0.0721
     21 C         140.4732  144.4537  160.3706 C.3     1  UNL1        0.1687
     22 C         141.2050  143.1473  160.4599 C.3     1  UNL1        0.0609
     23 C         142.0780  142.8562  161.6444 C.3     1  UNL1        0.0758
     24 N         142.2191  143.8714  162.7397 N.3     1  UNL1       -0.2724
     25 C         141.4873  145.1777  162.6503 C.3     1  UNL1        0.0758
     26 C         140.6143  145.4688  161.4658 C.3     1  UNL1        0.0609
     27 O         139.6002  144.7448  159.1860 O.3     1  UNL1       -0.4791
     28 C         140.2314  142.4235  154.5803 C.3     1  UNL1        0.0320
     29 C         140.4995  143.5766  155.5014 C.ar    1  UNL1       -0.0083
     30 C         139.9158  143.5842  156.8831 C.ar    1  UNL1        0.0335
     31 C         140.1839  144.7373  157.8043 C.ar    1  UNL1        0.1381
     32 C         141.0357  145.8828  157.3437 C.ar    1  UNL1        0.0377
     33 C         141.6194  145.8752  155.9620 C.ar    1  UNL1        0.0142
     34 C         141.3513  144.7221  155.0408 C.ar    1  UNL1        0.0539
     35 CL        141.9351  144.7146  153.6590 Cl      1  UNL1       -0.0826
@<TRIPOS>UNITY_ATOM_ATTR
10 1
charge -1
@<TRIPOS>BOND
     1    28    29    1
     2    29    30   ar
     3    30    31   ar
     4    31    27    1
     5    27    21    1
     6    21    22    1
     7    22    23    1
     8    23    24    1
     9    24    20    1
    10    20     1    1
    11     1     2    1
    12     2     3    1
    13     3     4    1
    14     4     7    1
    15     7     8    1
    16     7    12    1
    17    12    13    1
    18    13    14   ar
    19    14    15   ar
    20    15    16   ar
    21    16    17    1
    22    16    18   ar
    23    18    19   ar
    24     7     9    1
    25     9    10   ar
    26     9    11   ar
    27     4     5    1
    28     5     6    1
    29    24    25    1
    30    25    26    1
    31    31    32   ar
    32    32    33   ar
    33    33    34   ar
    34    34    35    1
    35    34    29   ar
    36    26    21    1
    37     6     1    1
    38    19    13   ar
@<TRIPOS>MOLECULE
*****
 35 38 0 0 0
SMALL
GASTEIGER

@<TRIPOS>ATOM
      1 C         139.6520  138.5440  164.6263 C.3     1  UNL1        0.0188
      2 C         138.4953  139.2605  165.2576 C.3     1  UNL1        0.0188
      3 C         138.7174  140.1304  166.4592 C.3     1  UNL1        0.0724
      4 N         140.0962  140.2838  167.0294 N.3     1  UNL1       -0.2704
      5 C         141.2530  139.5674  166.3981 C.3     1  UNL1        0.0724
      6 C         141.0308  138.6974  165.1966 C.3     1  UNL1        0.0188
      7 C         140.3183  141.1538  168.2311 C.3     1  UNL1        0.0815
      8 C         139.3700  140.3028  169.0225 C.3     1  UNL1        0.0221
      9 C         140.5404  142.0238  169.4326 C.2     1  UNL1        0.0635
     10 O         141.2750  142.6090  169.7267 O.co2   1  UNL1       -0.5478
     11 O         139.4892  142.1125  170.4990 O.co2   1  UNL1       -0.5478
     12 C         141.2666  142.0048  167.4397 C.3     1  UNL1        0.0463
     13 C         140.7489  142.8731  166.3314 C.ar    1  UNL1       -0.0204
     14 C         141.4742  142.9267  165.0195 C.ar    1  UNL1       -0.0019
     15 C         140.9565  143.7949  163.9112 C.ar    1  UNL1        0.0293
     16 C         139.7135  144.6095  164.1149 C.ar    1  UNL1        0.1401
     17 F         139.1958  145.4777  163.0067 F       1  UNL1       -0.2042
     18 C         138.9883  144.5558  165.4269 C.ar    1  UNL1        0.0293
     19 C         139.5060  143.6876  166.5351 C.ar    1  UNL1       -0.0019
     20 C         139.4299  137.6740  163.4246 C.3     1  UNL1        0.0721
     21 C         138.5862  139.5428  159.4189 C.3     1  UNL1        0.1687
     22 C         137.5543  139.6012  160.5061 C.3     1  UNL1        0.0609
     23 C         137.8356  138.9783  161.8413 C.3     1  UNL1        0.0758
     24 N         139.1487  138.2969  162.0894 N.3     1  UNL1       -0.2724
     25 C         140.1805  138.2385  161.0023 C.3     1  UNL1        0.0758
     26 C         139.8993  138.8614  159.6670 C.3     1  UNL1        0.0609
     27 O         138.3050  140.1657  158.0837 O.3     1  UNL1       -0.4791
     28 C         140.2362  144.6998  159.7306 C.3     1  UNL1        0.0320
     29 C         139.7422  143.8266  158.6155 C.ar    1  UNL1       -0.0083
     30 C         139.2706  142.4328  158.9071 C.ar    1  UNL1        0.0335
     31 C         138.7766  141.5595  157.7921 C.ar    1  UNL1        0.1381
     32 C         138.7542  142.0800  156.3854 C.ar    1  UNL1        0.0377
     33 C         139.2258  143.4737  156.0939 C.ar    1  UNL1        0.0142
     34 C         139.7198  144.3470  157.2089 C.ar    1  UNL1        0.0539
     35 CL        140.1914  145.7408  156.9173 Cl      1  UNL1       -0.0826
@<TRIPOS>UNITY_ATOM_ATTR
10 1
charge -1
@<TRIPOS>BOND
     1    28    29    1
     2    29    30   ar
     3    30    31   ar
     4    31    27    1
     5    27    21    1
     6    21    22    1
     7    22    23    1
     8    23    24    1
     9    24    20    1
    10    20     1    1
    11     1     2    1
    12     2     3    1
    13     3     4    1
    14     4     7    1
    15     7     8    1
    16     7    12    1
    17    12    13    1
    18    13    14   ar
    19    14    15   ar
    20    15    16   ar
    21    16    17    1
    22    16    18   ar
    23    18    19   ar
    24     7     9    1
    25     9    10   ar
    26     9    11   ar
    27     4     5    1
    28     5     6    1
    29    24    25    1
    30    25    26    1
    31    31    32   ar
    32    32    33   ar
    33    33    34   ar
    34    34    35    1
    35    34    29   ar
    36    26    21    1
    37     6     1    1
    38    19    13   ar
@<TRIPOS>MOLECULE
*****
 35 38 0 0 0
SMALL
GASTEIGER

@<TRIPOS>ATOM
      1 C         142.0141  143.9036  164.5299 C.3     1  UNL1        0.0188
      2 C         140.6154  143.7619  165.0529 C.3     1  UNL1        0.0188
      3 C         140.3266  142.8063  166.1725 C.3     1  UNL1        0.0724
      4 N         141.4365  141.9925  166.7689 N.3     1  UNL1       -0.2704
      5 C         142.8351  142.1342  166.2459 C.3     1  UNL1        0.0724
      6 C         143.1239  143.0897  165.1264 C.3     1  UNL1        0.0188
      7 C         141.1476  141.0368  167.8885 C.3     1  UNL1        0.0815
      8 C         140.5588  142.1574  168.6932 C.3     1  UNL1        0.0221
      9 C         140.8588  140.0812  169.0081 C.2     1  UNL1        0.0635
     10 O         140.0378  139.7994  169.4718 O.co2   1  UNL1       -0.5478
     11 O         141.9796  139.3211  169.6533 O.co2   1  UNL1       -0.5478
     12 C         141.7364  139.9162  167.0839 C.3     1  UNL1        0.0463
     13 C         140.9075  139.2246  166.0424 C.ar    1  UNL1       -0.0204
     14 C         141.5757  138.4921  164.9169 C.ar    1  UNL1       -0.0019
     15 C         140.7468  137.8004  163.8754 C.ar    1  UNL1        0.0293
     16 C         139.2498  137.8414  163.9595 C.ar    1  UNL1        0.1401
     17 F         138.4209  137.1498  162.9180 F       1  UNL1       -0.2042
     18 C         138.5816  138.5740  165.0851 C.ar    1  UNL1        0.0293
     19 C         139.4105  139.2656  166.1265 C.ar    1  UNL1       -0.0019
     20 C         142.3029  144.8592  163.4103 C.3     1  UNL1        0.0721
     21 C         141.3343  143.7133  159.1678 C.3     1  UNL1        0.1687
     22 C         142.5722  143.1788  159.8250 C.3     1  UNL1        0.0609
     23 C         142.8951  143.5608  161.2392 C.3     1  UNL1        0.0758
     24 N         141.9800  144.4773  161.9961 N.3     1  UNL1       -0.2724
     25 C         140.7422  145.0117  161.3389 C.3     1  UNL1        0.0758
     26 C         140.4193  144.6297  159.9247 C.3     1  UNL1        0.0609
     27 O         141.0114  143.3313  157.7536 O.3     1  UNL1       -0.4791
     28 C         136.5179  143.4570  155.1474 C.3     1  UNL1        0.0320
     29 C         137.4347  142.7820  156.1240 C.ar    1  UNL1       -0.0083
     30 C         138.7646  143.3941  156.4505 C.ar    1  UNL1        0.0335
     31 C         139.6814  142.7191  157.4271 C.ar    1  UNL1        0.1381
     32 C         139.2684  141.4320  158.0772 C.ar    1  UNL1        0.0377
     33 C         137.9385  140.8199  157.7507 C.ar    1  UNL1        0.0142
     34 C         137.0217  141.4949  156.7741 C.ar    1  UNL1        0.0539
     35 CL        135.6917  140.8827  156.4476 Cl      1  UNL1       -0.0826
@<TRIPOS>UNITY_ATOM_ATTR
10 1
charge -1
@<TRIPOS>BOND
     1    28    29    1
     2    29    30   ar
     3    30    31   ar
     4    31    27    1
     5    27    21    1
     6    21    22    1
     7    22    23    1
     8    23    24    1
     9    24    20    1
    10    20     1    1
    11     1     2    1
    12     2     3    1
    13     3     4    1
    14     4     7    1
    15     7     8    1
    16     7    12    1
    17    12    13    1
    18    13    14   ar
    19    14    15   ar
    20    15    16   ar
    21    16    17    1
    22    16    18   ar
    23    18    19   ar
    24     7     9    1
    25     9    10   ar
    26     9    11   ar
    27     4     5    1
    28     5     6    1
    29    24    25    1
    30    25    26    1
    31    31    32   ar
    32    32    33   ar
    33    33    34   ar
    34    34    35    1
    35    34    29   ar
    36    26    21    1
    37     6     1    1
    38    19    13   ar
