@<TRIPOS>MOLECULE
*****
 28 31 0 0 0
SMALL
GASTEIGER

@<TRIPOS>ATOM
      1 C         140.9747  143.0418  163.0993 C.3     1  UNL1        0.1747
      2 C         142.1945  142.2060  162.8474 C.3     1  UNL1        0.0406
      3 C         142.6138  141.1704  163.8482 C.3     1  UNL1        0.0403
      4 C         143.8336  140.3345  163.5964 C.3     1  UNL1        0.0569
      5 C         144.6340  140.5341  162.3436 C.3     1  UNL1        0.0122
      6 S         144.2529  139.2989  164.5973 S.3     1  UNL1       -0.0816
      7 C         143.4525  139.0993  165.8500 C.2     1  UNL1        0.1482
      8 N         143.8718  138.0637  166.8509 N.pl3   1  UNL1       -0.3380
      9 N         142.2327  139.9352  166.1019 N.2     1  UNL1       -0.2484
     10 C         141.8133  140.9708  165.1010 C.3     1  UNL1        0.1352
     11 C         140.5936  141.8066  165.3529 C.3     1  UNL1        0.1691
     12 O         140.1743  142.8422  164.3521 O.3     1  UNL1       -0.3462
     13 H         144.6724  137.5151  166.6856 H       1  UNL1        0.1442
     14 H         143.3465  137.9326  167.6732 H       1  UNL1        0.1442
     15 C         141.0129  140.7711  166.3538 C.ar    1  UNL1        0.0278
     16 C         139.8653  139.8052  166.3646 C.ar    1  UNL1        0.0021
     17 C         139.0649  139.6055  167.6174 C.ar    1  UNL1        0.0295
     18 C         139.4121  140.3718  168.8594 C.ar    1  UNL1        0.1424
     19 F         138.6116  140.1721  170.1121 F       1  UNL1       -0.2041
     20 C         140.5596  141.3377  168.8485 C.ar    1  UNL1        0.0590
     21 C         141.3600  141.5373  167.5957 C.ar    1  UNL1        0.1402
     22 F         142.5076  142.5032  167.5848 F       1  UNL1       -0.2044
     23 C         140.3721  145.7021  158.5781 C.3     1  UNL1        0.0557
     24 C         140.2784  145.3002  160.0202 C.ar    1  UNL1        0.1008
     25 C         140.9048  144.0862  160.6397 C.ar    1  UNL1        0.0561
     26 C         140.5553  144.0774  162.0984 C.ar    1  UNL1        0.1809
     27 O         139.7129  145.2860  162.3804 O.2     1  UNL1       -0.3556
     28 N         139.5417  146.0417  161.0961 N.ar    1  UNL1       -0.0817
@<TRIPOS>BOND
     1    23    24    1
     2    24    25   ar
     3    25    26   ar
     4     1    26    1
     5     1     2    1
     6     3     2    1
     7     3     4    1
     8     4     5    1
     9     4     6    1
    10     6     7    1
    11     7     8    1
    12     7     9    2
    13     9    10    1
    14    10    15    1
    15    15    16   ar
    16    16    17   ar
    17    17    18   ar
    18    18    19    1
    19    18    20   ar
    20    20    21   ar
    21    21    22    1
    22    10    11    1
    23    11    12    1
    24    26    27   ar
    25    27    28   ar
    26    28    24   ar
    27    12     1    1
    28    10     3    1
    29    21    15   ar
    30     8    13    1
    31     8    14    1
@<TRIPOS>MOLECULE
*****
 28 31 0 0 0
SMALL
GASTEIGER

@<TRIPOS>ATOM
      1 C         140.8805  142.8139  162.3685 C.3     1  UNL1        0.1747
      2 C         142.3152  142.4326  162.5833 C.3     1  UNL1        0.0406
      3 C         142.6615  141.3130  163.5195 C.3     1  UNL1        0.0403
      4 C         144.0963  140.9316  163.7344 C.3     1  UNL1        0.0569
      5 C         145.1847  141.6699  163.0131 C.3     1  UNL1        0.0122
      6 S         144.4426  139.8120  164.6706 S.3     1  UNL1       -0.0816
      7 C         143.3542  139.0736  165.3919 C.2     1  UNL1        0.1482
      8 N         143.7005  137.9539  166.3281 N.pl3   1  UNL1       -0.3380
      9 N         141.9195  139.4549  165.1770 N.2     1  UNL1       -0.2484
     10 C         141.5731  140.5746  164.2408 C.3     1  UNL1        0.1352
     11 C         140.1384  140.9559  164.0259 C.3     1  UNL1        0.1691
     12 O         139.7921  142.0756  163.0898 O.3     1  UNL1       -0.3462
     13 H         144.6422  137.7037  166.4691 H       1  UNL1        0.1442
     14 H         142.9862  137.4693  166.8015 H       1  UNL1        0.1442
     15 C         140.4847  139.8363  164.9621 C.ar    1  UNL1        0.0278
     16 C         139.9972  140.3304  166.2919 C.ar    1  UNL1        0.0021
     17 C         138.9088  139.5920  167.0132 C.ar    1  UNL1        0.0295
     18 C         138.3079  138.3597  166.4047 C.ar    1  UNL1        0.1424
     19 F         137.2195  137.6213  167.1260 F       1  UNL1       -0.2041
     20 C         138.7954  137.8657  165.0749 C.ar    1  UNL1        0.0590
     21 C         139.8838  138.6040  164.3536 C.ar    1  UNL1        0.1402
     22 F         140.3713  138.1100  163.0239 F       1  UNL1       -0.2044
     23 C         140.4544  145.7676  158.0124 C.3     1  UNL1        0.0557
     24 C         140.3383  145.2912  159.4300 C.ar    1  UNL1        0.1008
     25 C         140.8760  144.0006  159.9733 C.ar    1  UNL1        0.0561
     26 C         140.5342  143.9336  161.4323 C.ar    1  UNL1        0.1809
     27 O         139.7851  145.1828  161.7907 O.2     1  UNL1       -0.3556
     28 N         139.6641  146.0219  160.5532 N.ar    1  UNL1       -0.0817
@<TRIPOS>BOND
     1    23    24    1
     2    24    25   ar
     3    25    26   ar
     4     1    26    1
     5     1     2    1
     6     3     2    1
     7     3     4    1
     8     4     5    1
     9     4     6    1
    10     6     7    1
    11     7     8    1
    12     7     9    2
    13     9    10    1
    14    10    15    1
    15    15    16   ar
    16    16    17   ar
    17    17    18   ar
    18    18    19    1
    19    18    20   ar
    20    20    21   ar
    21    21    22    1
    22    10    11    1
    23    11    12    1
    24    26    27   ar
    25    27    28   ar
    26    28    24   ar
    27    12     1    1
    28    10     3    1
    29    21    15   ar
    30     8    13    1
    31     8    14    1
@<TRIPOS>MOLECULE
*****
 28 31 0 0 0
SMALL
GASTEIGER

@<TRIPOS>ATOM
      1 C         142.1035  141.9533  165.9543 C.3     1  UNL1        0.1747
      2 C         140.9914  142.9431  165.7712 C.3     1  UNL1        0.0406
      3 C         140.6665  143.4612  164.4016 C.3     1  UNL1        0.0403
      4 C         139.5543  144.4510  164.2184 C.3     1  UNL1        0.0569
      5 C         138.7671  144.9226  165.4050 C.3     1  UNL1        0.0122
      6 S         139.2294  144.9691  162.8488 S.3     1  UNL1       -0.0816
      7 C         140.0166  144.4975  161.6623 C.2     1  UNL1        0.1482
      8 N         139.6917  145.0157  160.2926 N.pl3   1  UNL1       -0.3380
      9 N         141.1287  143.5078  161.8454 N.2     1  UNL1       -0.2484
     10 C         141.4537  142.9896  163.2151 C.3     1  UNL1        0.1352
     11 C         142.5658  141.9999  163.3981 C.3     1  UNL1        0.1691
     12 O         142.8907  141.4817  164.7678 O.3     1  UNL1       -0.3462
     13 H         138.9617  145.6653  160.1724 H       1  UNL1        0.1442
     14 H         140.2083  144.7062  159.5138 H       1  UNL1        0.1442
     15 C         142.2409  142.5180  162.0285 C.ar    1  UNL1        0.0278
     16 C         141.7913  141.3091  161.2626 C.ar    1  UNL1        0.0021
     17 C         142.5785  140.8375  160.0760 C.ar    1  UNL1        0.0295
     18 C         143.8153  141.5748  159.6554 C.ar    1  UNL1        0.1424
     19 F         144.6025  141.1032  158.4689 F       1  UNL1       -0.2041
     20 C         144.2649  142.7835  160.4214 C.ar    1  UNL1        0.0590
     21 C         143.4777  143.2552  161.6079 C.ar    1  UNL1        0.1402
     22 F         143.9272  144.4639  162.3739 F       1  UNL1       -0.2044
     23 C         142.5684  138.7650  170.1376 C.3     1  UNL1        0.0557
     24 C         142.6421  139.9696  169.2468 C.ar    1  UNL1        0.1008
     25 C         142.1561  140.0495  167.8300 C.ar    1  UNL1        0.0561
     26 C         142.4284  141.4351  167.3240 C.ar    1  UNL1        0.1809
     27 O         143.0827  142.2115  168.4281 O.2     1  UNL1       -0.3556
     28 N         143.2148  141.3058  169.6165 N.ar    1  UNL1       -0.0817
@<TRIPOS>BOND
     1    23    24    1
     2    24    25   ar
     3    25    26   ar
     4     1    26    1
     5     1     2    1
     6     3     2    1
     7     3     4    1
     8     4     5    1
     9     4     6    1
    10     6     7    1
    11     7     8    1
    12     7     9    2
    13     9    10    1
    14    10    15    1
    15    15    16   ar
    16    16    17   ar
    17    17    18   ar
    18    18    19    1
    19    18    20   ar
    20    20    21   ar
    21    21    22    1
    22    10    11    1
    23    11    12    1
    24    26    27   ar
    25    27    28   ar
    26    28    24   ar
    27    12     1    1
    28    10     3    1
    29    21    15   ar
    30     8    13    1
    31     8    14    1
@<TRIPOS>MOLECULE
*****
 28 31 0 0 0
SMALL
GASTEIGER

@<TRIPOS>ATOM
      1 C         140.2363  140.5366  166.4412 C.3     1  UNL1        0.1747
      2 C         139.7952  139.4553  165.4999 C.3     1  UNL1        0.0406
      3 C         139.4107  139.7981  164.0912 C.3     1  UNL1        0.0403
      4 C         138.9696  138.7167  163.1498 C.3     1  UNL1        0.0569
      5 C         138.9130  137.2925  163.6173 C.3     1  UNL1        0.0122
      6 S         138.5851  139.0596  161.7411 S.3     1  UNL1       -0.0816
      7 C         138.6417  140.4837  161.2737 C.2     1  UNL1        0.1482
      8 N         138.2571  140.8265  159.8649 N.pl3   1  UNL1       -0.3380
      9 N         139.0828  141.5651  162.2150 N.2     1  UNL1       -0.2484
     10 C         139.4673  141.2223  163.6238 C.3     1  UNL1        0.1352
     11 C         139.9084  142.3036  164.5651 C.3     1  UNL1        0.1691
     12 O         140.2929  141.9608  165.9738 O.3     1  UNL1       -0.3462
     13 H         137.9676  140.1168  159.2470 H       1  UNL1        0.1442
     14 H         138.2943  141.7613  159.5580 H       1  UNL1        0.1442
     15 C         139.5239  142.6465  163.1563 C.ar    1  UNL1        0.0278
     16 C         140.7904  143.1925  162.5665 C.ar    1  UNL1        0.0021
     17 C         140.8470  144.6167  162.0991 C.ar    1  UNL1        0.0295
     18 C         139.6371  145.4948  162.2214 C.ar    1  UNL1        0.1424
     19 F         139.6937  146.9190  161.7540 F       1  UNL1       -0.2041
     20 C         138.3706  144.9488  162.8112 C.ar    1  UNL1        0.0590
     21 C         138.3140  143.5246  163.2787 C.ar    1  UNL1        0.1402
     22 F         137.0476  142.9786  163.8684 F       1  UNL1       -0.2044
     23 C         143.0905  139.6695  170.7982 C.3     1  UNL1        0.0557
     24 C         141.9328  139.7952  169.8527 C.ar    1  UNL1        0.1008
     25 C         142.0121  140.2009  168.4108 C.ar    1  UNL1        0.0561
     26 C         140.6209  140.1938  167.8501 C.ar    1  UNL1        0.1809
     27 O         139.6817  139.7837  168.9454 O.2     1  UNL1       -0.3556
     28 N         140.4925  139.5374  170.1831 N.ar    1  UNL1       -0.0817
@<TRIPOS>BOND
     1    23    24    1
     2    24    25   ar
     3    25    26   ar
     4     1    26    1
     5     1     2    1
     6     3     2    1
     7     3     4    1
     8     4     5    1
     9     4     6    1
    10     6     7    1
    11     7     8    1
    12     7     9    2
    13     9    10    1
    14    10    15    1
    15    15    16   ar
    16    16    17   ar
    17    17    18   ar
    18    18    19    1
    19    18    20   ar
    20    20    21   ar
    21    21    22    1
    22    10    11    1
    23    11    12    1
    24    26    27   ar
    25    27    28   ar
    26    28    24   ar
    27    12     1    1
    28    10     3    1
    29    21    15   ar
    30     8    13    1
    31     8    14    1
@<TRIPOS>MOLECULE
*****
 28 31 0 0 0
SMALL
GASTEIGER

@<TRIPOS>ATOM
      1 C         142.1011  140.2625  166.3419 C.3     1  UNL1        0.1747
      2 C         140.8827  139.4106  166.1432 C.3     1  UNL1        0.0406
      3 C         140.4601  139.0176  164.7586 C.3     1  UNL1        0.0403
      4 C         139.2416  138.1656  164.5598 C.3     1  UNL1        0.0569
      5 C         138.4457  137.7067  165.7455 C.3     1  UNL1        0.0122
      6 S         138.8190  137.7727  163.1753 S.3     1  UNL1       -0.0816
      7 C         139.6148  138.2316  161.9895 C.2     1  UNL1        0.1482
      8 N         139.1922  137.8386  160.6049 N.pl3   1  UNL1       -0.3380
      9 N         140.8333  139.0836  162.1883 N.2     1  UNL1       -0.2484
     10 C         141.2559  139.4766  163.5729 C.3     1  UNL1        0.1352
     11 C         142.4744  140.3285  163.7717 C.3     1  UNL1        0.1691
     12 O         142.8970  140.7215  165.1562 O.3     1  UNL1       -0.3462
     13 H         138.3925  137.2795  160.4745 H       1  UNL1        0.1442
     14 H         139.7145  138.1399  159.8267 H       1  UNL1        0.1442
     15 C         142.0518  139.9356  162.3872 C.ar    1  UNL1        0.0278
     16 C         141.7596  141.2651  161.7569 C.ar    1  UNL1        0.0021
     17 C         142.5555  141.7240  160.5712 C.ar    1  UNL1        0.0295
     18 C         143.6435  140.8535  160.0157 C.ar    1  UNL1        0.1424
     19 F         144.4393  141.3125  158.8300 F       1  UNL1       -0.2041
     20 C         143.9356  139.5241  160.6460 C.ar    1  UNL1        0.0590
     21 C         143.1398  139.0651  161.8317 C.ar    1  UNL1        0.1402
     22 F         143.4319  137.7357  162.4620 F       1  UNL1       -0.2044
     23 C         143.2127  143.1426  170.6257 C.3     1  UNL1        0.0557
     24 C         143.0347  141.9794  169.6955 C.ar    1  UNL1        0.1008
     25 C         142.5466  142.0500  168.2789 C.ar    1  UNL1        0.0561
     26 C         142.5237  140.6555  167.7265 C.ar    1  UNL1        0.1809
     27 O         142.9977  139.7232  168.8017 O.2     1  UNL1       -0.3556
     28 N         143.3135  140.5413  170.0186 N.ar    1  UNL1       -0.0817
@<TRIPOS>BOND
     1    23    24    1
     2    24    25   ar
     3    25    26   ar
     4     1    26    1
     5     1     2    1
     6     3     2    1
     7     3     4    1
     8     4     5    1
     9     4     6    1
    10     6     7    1
    11     7     8    1
    12     7     9    2
    13     9    10    1
    14    10    15    1
    15    15    16   ar
    16    16    17   ar
    17    17    18   ar
    18    18    19    1
    19    18    20   ar
    20    20    21   ar
    21    21    22    1
    22    10    11    1
    23    11    12    1
    24    26    27   ar
    25    27    28   ar
    26    28    24   ar
    27    12     1    1
    28    10     3    1
    29    21    15   ar
    30     8    13    1
    31     8    14    1
@<TRIPOS>MOLECULE
*****
 28 31 0 0 0
SMALL
GASTEIGER

@<TRIPOS>ATOM
      1 C         140.1513  140.0096  166.6147 C.3     1  UNL1        0.1747
      2 C         141.5337  139.6301  166.1733 C.3     1  UNL1        0.0406
      3 C         141.8053  139.3372  164.7275 C.3     1  UNL1        0.0403
      4 C         143.1878  138.9576  164.2860 C.3     1  UNL1        0.0569
      5 C         144.2985  138.8709  165.2904 C.3     1  UNL1        0.0122
      6 S         143.4595  138.6648  162.8402 S.3     1  UNL1       -0.0816
      7 C         142.3487  138.7515  161.8358 C.2     1  UNL1        0.1482
      8 N         142.6205  138.4587  160.3899 N.pl3   1  UNL1       -0.3380
      9 N         140.9664  139.1311  162.2772 N.2     1  UNL1       -0.2484
     10 C         140.6946  139.4239  163.7231 C.3     1  UNL1        0.1352
     11 C         139.3122  139.8035  164.1645 C.3     1  UNL1        0.1691
     12 O         139.0406  140.0964  165.6103 O.3     1  UNL1       -0.3462
     13 H         143.5278  138.2095  160.1002 H       1  UNL1        0.1442
     14 H         141.8915  138.5156  159.7307 H       1  UNL1        0.1442
     15 C         139.5839  139.5107  162.7187 C.ar    1  UNL1        0.0278
     16 C         139.3553  140.7853  161.9615 C.ar    1  UNL1        0.0021
     17 C         138.2446  140.8720  160.9571 C.ar    1  UNL1        0.0295
     18 C         137.3625  139.6842  160.7099 C.ar    1  UNL1        0.1424
     19 F         136.2518  139.7709  159.7056 F       1  UNL1       -0.2041
     20 C         137.5911  138.4097  161.4671 C.ar    1  UNL1        0.0590
     21 C         138.7018  138.3229  162.4715 C.ar    1  UNL1        0.1402
     22 F         138.9305  137.0485  163.2287 F       1  UNL1       -0.2044
     23 C         140.3726  142.1661  171.4295 C.3     1  UNL1        0.0557
     24 C         139.9813  141.2937  170.2737 C.ar    1  UNL1        0.1008
     25 C         140.5610  141.3492  168.8913 C.ar    1  UNL1        0.0561
     26 C         139.8796  140.3025  168.0606 C.ar    1  UNL1        0.1809
     27 O         138.8788  139.6001  168.9295 O.2     1  UNL1       -0.3556
     28 N         138.9416  140.2127  170.2973 N.ar    1  UNL1       -0.0817
@<TRIPOS>BOND
     1    23    24    1
     2    24    25   ar
     3    25    26   ar
     4     1    26    1
     5     1     2    1
     6     3     2    1
     7     3     4    1
     8     4     5    1
     9     4     6    1
    10     6     7    1
    11     7     8    1
    12     7     9    2
    13     9    10    1
    14    10    15    1
    15    15    16   ar
    16    16    17   ar
    17    17    18   ar
    18    18    19    1
    19    18    20   ar
    20    20    21   ar
    21    21    22    1
    22    10    11    1
    23    11    12    1
    24    26    27   ar
    25    27    28   ar
    26    28    24   ar
    27    12     1    1
    28    10     3    1
    29    21    15   ar
    30     8    13    1
    31     8    14    1
@<TRIPOS>MOLECULE
*****
 28 31 0 0 0
SMALL
GASTEIGER

@<TRIPOS>ATOM
      1 C         142.3670  141.2565  166.3061 C.3     1  UNL1        0.1747
      2 C         143.5169  141.4038  165.3543 C.3     1  UNL1        0.0406
      3 C         143.3723  140.9597  163.9289 C.3     1  UNL1        0.0403
      4 C         144.5223  141.1071  162.9771 C.3     1  UNL1        0.0569
      5 C         145.8168  141.6986  163.4507 C.3     1  UNL1        0.0122
      6 S         144.3777  140.6630  161.5517 S.3     1  UNL1       -0.0816
      7 C         143.0832  140.0715  161.0780 C.2     1  UNL1        0.1482
      8 N         142.9386  139.6274  159.6526 N.pl3   1  UNL1       -0.3380
      9 N         141.9332  139.9241  162.0298 N.2     1  UNL1       -0.2484
     10 C         142.0778  140.3682  163.4553 C.3     1  UNL1        0.1352
     11 C         140.9278  140.2209  164.4070 C.3     1  UNL1        0.1691
     12 O         141.0724  140.6650  165.8324 O.3     1  UNL1       -0.3462
     13 H         143.6934  139.7241  159.0279 H       1  UNL1        0.1442
     14 H         142.0890  139.2392  159.3417 H       1  UNL1        0.1442
     15 C         140.7832  139.7768  162.9816 C.ar    1  UNL1        0.0278
     16 C         139.7060  140.6679  162.4379 C.ar    1  UNL1        0.0021
     17 C         138.4115  140.0764  161.9642 C.ar    1  UNL1        0.0295
     18 C         138.1942  138.5938  162.0343 C.ar    1  UNL1        0.1424
     19 F         136.8997  138.0023  161.5607 F       1  UNL1       -0.2041
     20 C         139.2714  137.7028  162.5781 C.ar    1  UNL1        0.0590
     21 C         140.5659  138.2943  163.0517 C.ar    1  UNL1        0.1402
     22 F         141.6431  137.4033  163.5955 F       1  UNL1       -0.2044
     23 C         141.5308  141.8737  171.4831 C.3     1  UNL1        0.0557
     24 C         142.1271  141.9843  170.1112 C.ar    1  UNL1        0.1008
     25 C         141.6147  141.3149  168.8705 C.ar    1  UNL1        0.0561
     26 C         142.5115  141.7006  167.7316 C.ar    1  UNL1        0.1809
     27 O         143.5782  142.6083  168.2684 O.2     1  UNL1       -0.3556
     28 N         143.3406  142.7837  169.7391 N.ar    1  UNL1       -0.0817
@<TRIPOS>BOND
     1    23    24    1
     2    24    25   ar
     3    25    26   ar
     4     1    26    1
     5     1     2    1
     6     3     2    1
     7     3     4    1
     8     4     5    1
     9     4     6    1
    10     6     7    1
    11     7     8    1
    12     7     9    2
    13     9    10    1
    14    10    15    1
    15    15    16   ar
    16    16    17   ar
    17    17    18   ar
    18    18    19    1
    19    18    20   ar
    20    20    21   ar
    21    21    22    1
    22    10    11    1
    23    11    12    1
    24    26    27   ar
    25    27    28   ar
    26    28    24   ar
    27    12     1    1
    28    10     3    1
    29    21    15   ar
    30     8    13    1
    31     8    14    1
@<TRIPOS>MOLECULE
*****
 28 31 0 0 0
SMALL
GASTEIGER

@<TRIPOS>ATOM
      1 C         139.4939  139.6971  160.1408 C.3     1  UNL1        0.1747
      2 C         140.9834  139.5627  160.2569 C.3     1  UNL1        0.0406
      3 C         141.6099  139.2899  161.5922 C.3     1  UNL1        0.0403
      4 C         143.0994  139.1554  161.7084 C.3     1  UNL1        0.0569
      5 C         143.9623  139.2937  160.4892 C.3     1  UNL1        0.0122
      6 S         143.7260  138.8826  163.0436 S.3     1  UNL1       -0.0816
      7 C         142.8631  138.7443  164.2628 C.2     1  UNL1        0.1482
      8 N         143.4898  138.4715  165.5981 N.pl3   1  UNL1       -0.3380
      9 N         141.3737  138.8788  164.1467 N.2     1  UNL1       -0.2484
     10 C         140.7471  139.1516  162.8114 C.3     1  UNL1        0.1352
     11 C         139.2577  139.2860  162.6953 C.3     1  UNL1        0.1691
     12 O         138.6311  139.5588  161.3600 O.3     1  UNL1       -0.3462
     13 H         144.4673  138.3833  165.6743 H       1  UNL1        0.1442
     14 H         142.9235  138.3807  166.3983 H       1  UNL1        0.1442
     15 C         139.8842  139.0132  164.0305 C.ar    1  UNL1        0.0278
     16 C         139.3425  137.6690  164.4174 C.ar    1  UNL1        0.0021
     17 C         138.4796  137.5307  165.6365 C.ar    1  UNL1        0.0295
     18 C         138.1585  138.7366  166.4689 C.ar    1  UNL1        0.1424
     19 F         137.2957  138.5983  167.6880 F       1  UNL1       -0.2041
     20 C         138.7002  140.0808  166.0820 C.ar    1  UNL1        0.0590
     21 C         139.5631  140.2191  164.8628 C.ar    1  UNL1        0.1402
     22 F         140.1048  141.5632  164.4760 F       1  UNL1       -0.2044
     23 C         136.8897  142.0663  156.2056 C.3     1  UNL1        0.0557
     24 C         137.6702  141.0590  156.9967 C.ar    1  UNL1        0.1008
     25 C         138.1224  141.2131  158.4186 C.ar    1  UNL1        0.0561
     26 C         138.8673  139.9699  158.8055 C.ar    1  UNL1        0.1809
     27 O         138.8756  139.0475  157.6227 O.2     1  UNL1       -0.3556
     28 N         138.1358  139.7205  156.5048 N.ar    1  UNL1       -0.0817
@<TRIPOS>BOND
     1    23    24    1
     2    24    25   ar
     3    25    26   ar
     4     1    26    1
     5     1     2    1
     6     3     2    1
     7     3     4    1
     8     4     5    1
     9     4     6    1
    10     6     7    1
    11     7     8    1
    12     7     9    2
    13     9    10    1
    14    10    15    1
    15    15    16   ar
    16    16    17   ar
    17    17    18   ar
    18    18    19    1
    19    18    20   ar
    20    20    21   ar
    21    21    22    1
    22    10    11    1
    23    11    12    1
    24    26    27   ar
    25    27    28   ar
    26    28    24   ar
    27    12     1    1
    28    10     3    1
    29    21    15   ar
    30     8    13    1
    31     8    14    1
@<TRIPOS>MOLECULE
*****
 28 31 0 0 0
SMALL
GASTEIGER

@<TRIPOS>ATOM
      1 C         142.3634  141.5789  163.5294 C.3     1  UNL1        0.1747
      2 C         141.1718  140.6824  163.3668 C.3     1  UNL1        0.0406
      3 C         140.3868  140.2527  164.5705 C.3     1  UNL1        0.0403
      4 C         139.1952  139.3561  164.4080 C.3     1  UNL1        0.0569
      5 C         138.7886  138.8894  163.0416 C.3     1  UNL1        0.0122
      6 S         138.4102  138.9264  165.6117 S.3     1  UNL1       -0.0816
      7 C         138.8167  139.3932  166.9780 C.2     1  UNL1        0.1482
      8 N         138.0316  138.9634  168.1818 N.pl3   1  UNL1       -0.3380
      9 N         140.0082  140.2897  167.1406 N.2     1  UNL1       -0.2484
     10 C         140.7933  140.7194  165.9368 C.3     1  UNL1        0.1352
     11 C         141.9849  141.6159  166.0994 C.3     1  UNL1        0.1691
     12 O         142.7699  142.0456  164.8957 O.3     1  UNL1       -0.3462
     13 H         137.2495  138.3750  168.0751 H       1  UNL1        0.1442
     14 H         138.2984  139.2698  169.0786 H       1  UNL1        0.1442
     15 C         141.1999  141.1862  167.3032 C.ar    1  UNL1        0.0278
     16 C         140.6553  142.4729  167.8490 C.ar    1  UNL1        0.0021
     17 C         141.0618  142.9397  169.2153 C.ar    1  UNL1        0.0295
     18 C         142.0129  142.1197  170.0358 C.ar    1  UNL1        0.1424
     19 F         142.4194  142.5865  171.4022 F       1  UNL1       -0.2041
     20 C         142.5574  140.8331  169.4900 C.ar    1  UNL1        0.0590
     21 C         142.1509  140.3663  168.1237 C.ar    1  UNL1        0.1402
     22 F         142.6954  139.0797  167.5778 F       1  UNL1       -0.2044
     23 C         143.6227  143.0309  158.6114 C.3     1  UNL1        0.0557
     24 C         143.7273  142.6761  160.0650 C.ar    1  UNL1        0.1008
     25 C         142.5918  142.2711  160.9576 C.ar    1  UNL1        0.0561
     26 C         143.1484  142.0086  162.3256 C.ar    1  UNL1        0.1809
     27 O         144.6279  142.2514  162.2784 O.2     1  UNL1       -0.3556
     28 N         144.9857  142.6639  160.8813 N.ar    1  UNL1       -0.0817
@<TRIPOS>BOND
     1    23    24    1
     2    24    25   ar
     3    25    26   ar
     4     1    26    1
     5     1     2    1
     6     3     2    1
     7     3     4    1
     8     4     5    1
     9     4     6    1
    10     6     7    1
    11     7     8    1
    12     7     9    2
    13     9    10    1
    14    10    15    1
    15    15    16   ar
    16    16    17   ar
    17    17    18   ar
    18    18    19    1
    19    18    20   ar
    20    20    21   ar
    21    21    22    1
    22    10    11    1
    23    11    12    1
    24    26    27   ar
    25    27    28   ar
    26    28    24   ar
    27    12     1    1
    28    10     3    1
    29    21    15   ar
    30     8    13    1
    31     8    14    1
