@<TRIPOS>MOLECULE
*****
 32 37 0 0 0
SMALL
GASTEIGER

@<TRIPOS>ATOM
      1 C         140.0062  139.8953  166.6742 C.ar    1  UNL1        0.0351
      2 C         138.7914  139.1003  167.0512 C.ar    1  UNL1        0.0030
      3 C         138.2233  138.0979  166.0909 C.ar    1  UNL1        0.0003
      4 C         138.8700  137.8905  164.7534 C.ar    1  UNL1        0.0063
      5 C         140.0848  138.6855  164.3763 C.ar    1  UNL1        0.0740
      6 C         140.7315  138.4781  163.0389 C.ar    1  UNL1        0.2641
      7 O         140.1633  137.4757  162.0785 O.2     1  UNL1       -0.2669
      8 N         141.9462  139.2731  162.6618 N.ar    1  UNL1       -0.2725
      9 C         142.5144  140.2756  163.6222 C.ar    1  UNL1        0.1999
     10 N         141.8677  140.4830  164.9597 N.ar    1  UNL1       -0.2150
     11 C         140.6529  139.6879  165.3367 C.ar    1  UNL1        0.0901
     12 C         144.5057  142.4886  170.2056 C.3     1  UNL1        0.0237
     13 C         143.0652  142.8353  169.9721 C.3     1  UNL1        0.0985
     14 N         142.3231  143.9829  170.5903 N.am    1  UNL1       -0.3004
     15 C         140.9131  143.9521  170.0796 C.2     1  UNL1        0.2438
     16 O         139.8236  144.9183  170.4395 O.2     1  UNL1       -0.2704
     17 C         140.7837  142.7855  169.1457 C.2     1  UNL1        0.0563
     18 C         139.8323  142.0454  168.2528 C.2     1  UNL1        0.0209
     19 C         140.5744  140.8978  167.6346 C.2     1  UNL1        0.0777
     20 N         141.9844  140.9286  168.1453 N.2     1  UNL1       -0.2660
     21 C         142.1138  142.0952  169.0792 C.3     1  UNL1        0.1476
     22 H         142.6960  144.6408  171.2206 H       1  UNL1        0.1498
     23 C         142.5929  139.0657  161.3244 C.3     1  UNL1        0.0738
     24 C         141.7991  140.0339  160.4983 C.3     1  UNL1        0.0228
     25 C         143.5153  138.5220  160.2738 C.3     1  UNL1        0.0228
     26 C         143.6113  138.0254  161.6860 C.3     1  UNL1        0.0228
     27 N         143.7292  141.0705  163.2452 N.pl3   1  UNL1       -0.3074
     28 H         144.5089  140.6194  162.8480 H       1  UNL1        0.1495
     29 C         143.7560  142.5529  163.4733 C.3     1  UNL1        0.0570
     30 C         142.7725  142.9947  162.4305 C.3     1  UNL1        0.0196
     31 C         144.1244  143.8818  164.0635 C.3     1  UNL1        0.0196
     32 C         144.7489  142.6258  164.5953 C.3     1  UNL1        0.0196
@<TRIPOS>BOND
     1    13    12    1
     2    13    14    1
     3    14    15   am
     4    15    16    2
     5    15    17    1
     6    17    18    2
     7    18    19    1
     8    19     1    1
     9     1     2   ar
    10     2     3   ar
    11     3     4   ar
    12     4     5   ar
    13     5     6   ar
    14     6     7    2
    15     6     8   ar
    16     8    23    1
    17    23    24    1
    18    23    25    1
    19    25    26    1
    20     8     9   ar
    21     9    27    1
    22    27    29    1
    23    29    30    1
    24    29    31    1
    25    31    32    1
    26     9    10   ar
    27    10    11   ar
    28    19    20    2
    29    20    21    1
    30    21    13    1
    31    21    17    1
    32    11     1   ar
    33    11     5   ar
    34    26    23    1
    35    32    29    1
    36    14    22    1
    37    27    28    1
@<TRIPOS>MOLECULE
*****
 32 37 0 0 0
SMALL
GASTEIGER

@<TRIPOS>ATOM
      1 C         140.5501  139.1995  164.9978 C.ar    1  UNL1        0.0351
      2 C         141.0041  137.7761  164.8655 C.ar    1  UNL1        0.0030
      3 C         141.2530  137.1915  163.5068 C.ar    1  UNL1        0.0003
      4 C         141.0479  138.0304  162.2803 C.ar    1  UNL1        0.0063
      5 C         140.5938  139.4538  162.4126 C.ar    1  UNL1        0.0740
      6 C         140.3886  140.2927  161.1862 C.ar    1  UNL1        0.2641
      7 O         140.6375  139.7081  159.8274 O.2     1  UNL1       -0.2669
      8 N         139.9346  141.7162  161.3185 N.ar    1  UNL1       -0.2725
      9 C         139.6857  142.3008  162.6773 C.ar    1  UNL1        0.1999
     10 N         139.8908  141.4619  163.9038 N.ar    1  UNL1       -0.2150
     11 C         140.3449  140.0384  163.7714 C.ar    1  UNL1        0.0901
     12 C         141.5560  143.1557  169.7706 C.3     1  UNL1        0.0237
     13 C         140.5785  142.0375  169.5610 C.3     1  UNL1        0.0985
     14 N         139.5352  141.5836  170.5385 N.am    1  UNL1       -0.3004
     15 C         138.7845  140.4424  169.9187 C.2     1  UNL1        0.2438
     16 O         137.6531  139.6855  170.5488 O.2     1  UNL1       -0.2704
     17 C         139.3638  140.1909  168.5581 C.2     1  UNL1        0.0563
     18 C         139.2579  139.3303  167.3342 C.2     1  UNL1        0.0209
     19 C         140.3012  139.7842  166.3567 C.2     1  UNL1        0.0777
     20 N         141.0519  140.9254  166.9765 N.2     1  UNL1       -0.2660
     21 C         140.4726  141.1768  168.3370 C.3     1  UNL1        0.1476
     22 H         139.3719  141.9673  171.4303 H       1  UNL1        0.1498
     23 C         139.7294  142.5550  160.0920 C.3     1  UNL1        0.0738
     24 C         138.2906  142.2453  159.8023 C.3     1  UNL1        0.0228
     25 C         140.0239  143.5015  158.9662 C.3     1  UNL1        0.0228
     26 C         141.0970  143.1561  159.9558 C.3     1  UNL1        0.0228
     27 N         139.2316  143.7243  162.8096 N.pl3   1  UNL1       -0.3074
     28 H         138.9242  144.2187  162.0157 H       1  UNL1        0.1495
     29 C         139.2461  144.3945  164.1515 C.3     1  UNL1        0.0570
     30 C         140.6716  144.8591  164.1952 C.3     1  UNL1        0.0196
     31 C         138.7654  144.9033  165.4782 C.3     1  UNL1        0.0196
     32 C         137.8255  144.1626  164.5737 C.3     1  UNL1        0.0196
@<TRIPOS>BOND
     1    13    12    1
     2    13    14    1
     3    14    15   am
     4    15    16    2
     5    15    17    1
     6    17    18    2
     7    18    19    1
     8    19     1    1
     9     1     2   ar
    10     2     3   ar
    11     3     4   ar
    12     4     5   ar
    13     5     6   ar
    14     6     7    2
    15     6     8   ar
    16     8    23    1
    17    23    24    1
    18    23    25    1
    19    25    26    1
    20     8     9   ar
    21     9    27    1
    22    27    29    1
    23    29    30    1
    24    29    31    1
    25    31    32    1
    26     9    10   ar
    27    10    11   ar
    28    19    20    2
    29    20    21    1
    30    21    13    1
    31    21    17    1
    32    11     1   ar
    33    11     5   ar
    34    26    23    1
    35    32    29    1
    36    14    22    1
    37    27    28    1
@<TRIPOS>MOLECULE
*****
 32 37 0 0 0
SMALL
GASTEIGER

@<TRIPOS>ATOM
      1 C         142.7911  142.4322  165.8514 C.ar    1  UNL1        0.0351
      2 C         144.0030  143.2847  165.6177 C.ar    1  UNL1        0.0030
      3 C         144.2544  143.8753  164.2620 C.ar    1  UNL1        0.0003
      4 C         143.2939  143.6134  163.1400 C.ar    1  UNL1        0.0063
      5 C         142.0820  142.7610  163.3737 C.ar    1  UNL1        0.0740
      6 C         141.1215  142.4992  162.2517 C.ar    1  UNL1        0.2641
      7 O         141.3729  143.0898  160.8960 O.2     1  UNL1       -0.2669
      8 N         139.9096  141.6467  162.4854 N.ar    1  UNL1       -0.2725
      9 C         139.6582  141.0561  163.8411 C.ar    1  UNL1        0.1999
     10 N         140.6186  141.3179  164.9631 N.ar    1  UNL1       -0.2150
     11 C         141.8306  142.1704  164.7294 C.ar    1  UNL1        0.0901
     12 C         143.0700  137.9736  170.2655 C.3     1  UNL1        0.0237
     13 C         142.4809  139.3528  170.2443 C.3     1  UNL1        0.0985
     14 N         141.7659  140.0237  171.3795 N.am    1  UNL1       -0.3004
     15 C         141.3464  141.3889  170.9210 C.2     1  UNL1        0.2438
     16 O         140.6019  142.4032  171.7377 O.2     1  UNL1       -0.2704
     17 C         141.8022  141.5619  169.5024 C.2     1  UNL1        0.0563
     18 C         141.8246  142.5124  168.3423 C.2     1  UNL1        0.0209
     19 C         142.5396  141.8416  167.2071 C.2     1  UNL1        0.0777
     20 N         142.9591  140.4764  167.6657 N.2     1  UNL1       -0.2660
     21 C         142.5033  140.3034  169.0842 C.3     1  UNL1        0.1476
     22 H         141.6008  139.6360  172.2693 H       1  UNL1        0.1498
     23 C         138.9491  141.3849  161.3634 C.3     1  UNL1        0.0738
     24 C         137.9992  142.5288  161.5613 C.3     1  UNL1        0.0228
     25 C         138.3185  140.7258  160.1726 C.3     1  UNL1        0.0228
     26 C         139.5654  140.1501  160.7757 C.3     1  UNL1        0.0228
     27 N         138.4463  140.2037  164.0748 N.pl3   1  UNL1       -0.3074
     28 H         137.5688  140.4913  163.7333 H       1  UNL1        0.1495
     29 C         138.5712  138.9130  164.8289 C.3     1  UNL1        0.0570
     30 C         138.0262  139.3358  166.1609 C.3     1  UNL1        0.0196
     31 C         138.8854  137.4755  165.1204 C.3     1  UNL1        0.0196
     32 C         139.1596  138.0420  163.7588 C.3     1  UNL1        0.0196
@<TRIPOS>BOND
     1    13    12    1
     2    13    14    1
     3    14    15   am
     4    15    16    2
     5    15    17    1
     6    17    18    2
     7    18    19    1
     8    19     1    1
     9     1     2   ar
    10     2     3   ar
    11     3     4   ar
    12     4     5   ar
    13     5     6   ar
    14     6     7    2
    15     6     8   ar
    16     8    23    1
    17    23    24    1
    18    23    25    1
    19    25    26    1
    20     8     9   ar
    21     9    27    1
    22    27    29    1
    23    29    30    1
    24    29    31    1
    25    31    32    1
    26     9    10   ar
    27    10    11   ar
    28    19    20    2
    29    20    21    1
    30    21    13    1
    31    21    17    1
    32    11     1   ar
    33    11     5   ar
    34    26    23    1
    35    32    29    1
    36    14    22    1
    37    27    28    1
@<TRIPOS>MOLECULE
*****
 32 37 0 0 0
SMALL
GASTEIGER

@<TRIPOS>ATOM
      1 C         142.9541  140.8731  165.2726 C.ar    1  UNL1        0.0351
      2 C         144.0164  139.8240  165.1288 C.ar    1  UNL1        0.0030
      3 C         144.5180  139.4463  163.7665 C.ar    1  UNL1        0.0003
      4 C         143.9571  140.1177  162.5481 C.ar    1  UNL1        0.0063
      5 C         142.8947  141.1668  162.6919 C.ar    1  UNL1        0.0740
      6 C         142.3339  141.8382  161.4734 C.ar    1  UNL1        0.2641
      7 O         142.8354  141.4606  160.1111 O.2     1  UNL1       -0.2669
      8 N         141.2715  142.8873  161.6172 N.ar    1  UNL1       -0.2725
      9 C         140.7699  143.2650  162.9795 C.ar    1  UNL1        0.1999
     10 N         141.3308  142.5936  164.1980 N.ar    1  UNL1       -0.2150
     11 C         142.3932  141.5445  164.0541 C.ar    1  UNL1        0.0901
     12 C         138.9495  140.7427  170.1088 C.3     1  UNL1        0.0237
     13 C         140.2387  141.4717  169.8710 C.3     1  UNL1        0.0985
     14 N         140.9087  142.4131  170.8275 N.am    1  UNL1       -0.3004
     15 C         142.1683  142.9105  170.1826 C.2     1  UNL1        0.2438
     16 O         143.1475  143.8729  170.7867 O.2     1  UNL1       -0.2704
     17 C         142.2769  142.2766  168.8275 C.2     1  UNL1        0.0563
     18 C         143.1224  142.1922  167.5914 C.2     1  UNL1        0.0209
     19 C         142.4525  141.2508  166.6349 C.2     1  UNL1        0.0777
     20 N         141.1928  140.7533  167.2798 N.2     1  UNL1       -0.2660
     21 C         141.0843  141.3873  168.6349 C.3     1  UNL1        0.1476
     22 H         140.5794  142.6610  171.7216 H       1  UNL1        0.1498
     23 C         140.7106  143.5587  160.3987 C.3     1  UNL1        0.0738
     24 C         141.6041  144.7616  160.3296 C.3     1  UNL1        0.0228
     25 C         139.8395  143.8124  159.2043 C.3     1  UNL1        0.0228
     26 C         139.6224  142.5891  160.0447 C.3     1  UNL1        0.0228
     27 N         139.7075  144.3141  163.1233 N.pl3   1  UNL1       -0.3074
     28 H         139.8019  145.1771  162.6590 H       1  UNL1        0.1495
     29 C         138.5013  144.0483  163.9746 C.3     1  UNL1        0.0570
     30 C         137.7526  143.1069  163.0784 C.3     1  UNL1        0.0196
     31 C         137.5552  144.1095  165.1369 C.3     1  UNL1        0.0196
     32 C         138.8313  144.8975  165.1662 C.3     1  UNL1        0.0196
@<TRIPOS>BOND
     1    13    12    1
     2    13    14    1
     3    14    15   am
     4    15    16    2
     5    15    17    1
     6    17    18    2
     7    18    19    1
     8    19     1    1
     9     1     2   ar
    10     2     3   ar
    11     3     4   ar
    12     4     5   ar
    13     5     6   ar
    14     6     7    2
    15     6     8   ar
    16     8    23    1
    17    23    24    1
    18    23    25    1
    19    25    26    1
    20     8     9   ar
    21     9    27    1
    22    27    29    1
    23    29    30    1
    24    29    31    1
    25    31    32    1
    26     9    10   ar
    27    10    11   ar
    28    19    20    2
    29    20    21    1
    30    21    13    1
    31    21    17    1
    32    11     1   ar
    33    11     5   ar
    34    26    23    1
    35    32    29    1
    36    14    22    1
    37    27    28    1
@<TRIPOS>MOLECULE
*****
 32 37 0 0 0
SMALL
GASTEIGER

@<TRIPOS>ATOM
      1 C         142.8539  142.2185  165.4322 C.ar    1  UNL1        0.0351
      2 C         144.0513  143.1025  165.2458 C.ar    1  UNL1        0.0030
      3 C         144.3756  143.6493  163.8872 C.ar    1  UNL1        0.0003
      4 C         143.5025  143.3121  162.7150 C.ar    1  UNL1        0.0063
      5 C         142.3051  142.4282  162.9014 C.ar    1  UNL1        0.0740
      6 C         141.4320  142.0910  161.7292 C.ar    1  UNL1        0.2641
      7 O         141.7563  142.6378  160.3706 O.2     1  UNL1       -0.2669
      8 N         140.2346  141.2070  161.9156 N.ar    1  UNL1       -0.2725
      9 C         139.9103  140.6601  163.2743 C.ar    1  UNL1        0.1999
     10 N         140.7833  140.9973  164.4464 N.ar    1  UNL1       -0.2150
     11 C         141.9808  141.8813  164.2600 C.ar    1  UNL1        0.0901
     12 C         140.1903  142.2964  171.1191 C.3     1  UNL1        0.0237
     13 C         141.0640  141.3008  170.4152 C.3     1  UNL1        0.0985
     14 N         141.5312  139.9888  170.9721 N.am    1  UNL1       -0.3004
     15 C         142.3798  139.3195  169.9319 C.2     1  UNL1        0.2438
     16 O         143.0530  137.9860  170.0677 O.2     1  UNL1       -0.2704
     17 C         142.4370  140.2179  168.7321 C.2     1  UNL1        0.0563
     18 C         142.9968  140.3596  167.3477 C.2     1  UNL1        0.0209
     19 C         142.5295  141.6717  166.7908 C.2     1  UNL1        0.0777
     20 N         141.6809  142.3409  167.8310 N.2     1  UNL1       -0.2660
     21 C         141.6237  141.4425  169.0308 C.3     1  UNL1        0.1476
     22 H         141.3183  139.6299  171.8638 H       1  UNL1        0.1498
     23 C         139.3615  140.8698  160.7434 C.3     1  UNL1        0.0738
     24 C         140.0690  139.6490  160.2343 C.3     1  UNL1        0.0228
     25 C         138.2428  140.9566  159.7481 C.3     1  UNL1        0.0228
     26 C         138.3508  141.9735  160.8454 C.3     1  UNL1        0.0228
     27 N         138.7129  139.7761  163.4606 N.pl3   1  UNL1       -0.3074
     28 H         137.8455  140.0339  163.0727 H       1  UNL1        0.1495
     29 C         138.8369  138.4993  164.2382 C.3     1  UNL1        0.0570
     30 C         139.4493  137.6159  163.1920 C.3     1  UNL1        0.0196
     31 C         138.7484  137.5294  165.3790 C.3     1  UNL1        0.0196
     32 C         138.2676  138.9395  165.5543 C.3     1  UNL1        0.0196
@<TRIPOS>BOND
     1    13    12    1
     2    13    14    1
     3    14    15   am
     4    15    16    2
     5    15    17    1
     6    17    18    2
     7    18    19    1
     8    19     1    1
     9     1     2   ar
    10     2     3   ar
    11     3     4   ar
    12     4     5   ar
    13     5     6   ar
    14     6     7    2
    15     6     8   ar
    16     8    23    1
    17    23    24    1
    18    23    25    1
    19    25    26    1
    20     8     9   ar
    21     9    27    1
    22    27    29    1
    23    29    30    1
    24    29    31    1
    25    31    32    1
    26     9    10   ar
    27    10    11   ar
    28    19    20    2
    29    20    21    1
    30    21    13    1
    31    21    17    1
    32    11     1   ar
    33    11     5   ar
    34    26    23    1
    35    32    29    1
    36    14    22    1
    37    27    28    1
@<TRIPOS>MOLECULE
*****
 32 37 0 0 0
SMALL
GASTEIGER

@<TRIPOS>ATOM
      1 C         140.2049  142.9693  165.9893 C.ar    1  UNL1        0.0351
      2 C         139.3576  144.2067  165.9648 C.ar    1  UNL1        0.0030
      3 C         139.0062  144.8493  164.6558 C.ar    1  UNL1        0.0003
      4 C         139.5022  144.2545  163.3712 C.ar    1  UNL1        0.0063
      5 C         140.3495  143.0170  163.3957 C.ar    1  UNL1        0.0740
      6 C         140.8455  142.4221  162.1111 C.ar    1  UNL1        0.2641
      7 O         140.4942  143.0647  160.8021 O.2     1  UNL1       -0.2669
      8 N         141.6929  141.1847  162.1355 N.ar    1  UNL1       -0.2725
      9 C         142.0443  140.5420  163.4446 C.ar    1  UNL1        0.1999
     10 N         141.5483  141.1368  164.7292 N.ar    1  UNL1       -0.2150
     11 C         140.7009  142.3744  164.7047 C.ar    1  UNL1        0.0901
     12 C         142.7820  138.5858  169.6752 C.3     1  UNL1        0.0237
     13 C         142.0022  139.8337  169.9661 C.3     1  UNL1        0.0985
     14 N         141.6378  140.3486  171.3270 N.am    1  UNL1       -0.3004
     15 C         140.8603  141.6190  171.1491 C.2     1  UNL1        0.2438
     16 O         140.2977  142.4697  172.2489 O.2     1  UNL1       -0.2704
     17 C         140.7442  141.8893  169.6782 C.2     1  UNL1        0.0563
     18 C         140.1919  142.8414  168.6592 C.2     1  UNL1        0.0209
     19 C         140.5563  142.3266  167.2983 C.2     1  UNL1        0.0777
     20 N         141.3338  141.0562  167.4762 N.2     1  UNL1       -0.2660
     21 C         141.4499  140.7859  168.9471 C.3     1  UNL1        0.1476
     22 H         141.8684  139.9268  172.1861 H       1  UNL1        0.1498
     23 C         142.1888  140.5898  160.8510 C.3     1  UNL1        0.0738
     24 C         143.5027  141.3024  160.7241 C.3     1  UNL1        0.0228
     25 C         142.2286  139.7475  159.6105 C.3     1  UNL1        0.0228
     26 C         141.0473  139.6706  160.5317 C.3     1  UNL1        0.0228
     27 N         142.8916  139.3045  163.4690 N.pl3   1  UNL1       -0.3074
     28 H         142.9640  138.7415  162.6646 H       1  UNL1        0.1495
     29 C         143.6286  138.9247  164.7191 C.3     1  UNL1        0.0570
     30 C         144.9481  139.5875  164.4550 C.3     1  UNL1        0.0196
     31 C         143.9074  138.3148  166.0609 C.3     1  UNL1        0.0196
     32 C         142.5651  138.1301  165.4173 C.3     1  UNL1        0.0196
@<TRIPOS>BOND
     1    13    12    1
     2    13    14    1
     3    14    15   am
     4    15    16    2
     5    15    17    1
     6    17    18    2
     7    18    19    1
     8    19     1    1
     9     1     2   ar
    10     2     3   ar
    11     3     4   ar
    12     4     5   ar
    13     5     6   ar
    14     6     7    2
    15     6     8   ar
    16     8    23    1
    17    23    24    1
    18    23    25    1
    19    25    26    1
    20     8     9   ar
    21     9    27    1
    22    27    29    1
    23    29    30    1
    24    29    31    1
    25    31    32    1
    26     9    10   ar
    27    10    11   ar
    28    19    20    2
    29    20    21    1
    30    21    13    1
    31    21    17    1
    32    11     1   ar
    33    11     5   ar
    34    26    23    1
    35    32    29    1
    36    14    22    1
    37    27    28    1
@<TRIPOS>MOLECULE
*****
 32 37 0 0 0
SMALL
GASTEIGER

@<TRIPOS>ATOM
      1 C         142.9187  142.1574  165.6113 C.ar    1  UNL1        0.0351
      2 C         143.6137  143.4825  165.7160 C.ar    1  UNL1        0.0030
      3 C         144.1357  144.1552  164.4811 C.ar    1  UNL1        0.0003
      4 C         143.9627  143.5028  163.1415 C.ar    1  UNL1        0.0063
      5 C         143.2677  142.1777  163.0369 C.ar    1  UNL1        0.0740
      6 C         143.0946  141.5253  161.6973 C.ar    1  UNL1        0.2641
      7 O         143.6166  142.1980  160.4624 O.2     1  UNL1       -0.2669
      8 N         142.3996  140.2002  161.5926 N.ar    1  UNL1       -0.2725
      9 C         141.8776  139.5274  162.8275 C.ar    1  UNL1        0.1999
     10 N         142.0506  140.1798  164.1671 N.ar    1  UNL1       -0.2150
     11 C         142.7457  141.5050  164.2717 C.ar    1  UNL1        0.0901
     12 C         143.0234  137.9855  170.3045 C.3     1  UNL1        0.0237
     13 C         142.0567  139.0666  169.9219 C.3     1  UNL1        0.0985
     14 N         140.7903  139.4140  170.6468 N.am    1  UNL1       -0.3004
     15 C         140.1375  140.5523  169.9200 C.2     1  UNL1        0.2438
     16 O         138.8481  141.2177  170.3006 O.2     1  UNL1       -0.2704
     17 C         141.0004  140.9085  168.7459 C.2     1  UNL1        0.0563
     18 C         141.1303  141.8320  167.5712 C.2     1  UNL1        0.0209
     19 C         142.3967  141.4846  166.8462 C.2     1  UNL1        0.0777
     20 N         143.0495  140.3463  167.5730 N.2     1  UNL1       -0.2660
     21 C         142.1866  139.9902  168.7471 C.3     1  UNL1        0.1476
     22 H         140.4477  138.9725  171.4573 H       1  UNL1        0.1498
     23 C         142.2266  139.5478  160.2531 C.3     1  UNL1        0.0738
     24 C         140.8928  140.1102  159.8597 C.3     1  UNL1        0.0228
     25 C         142.5167  138.7000  159.0501 C.3     1  UNL1        0.0228
     26 C         143.5002  138.7587  160.1812 C.3     1  UNL1        0.0228
     27 N         141.1826  138.2023  162.7229 N.pl3   1  UNL1       -0.3074
     28 H         141.3692  137.6074  161.9609 H       1  UNL1        0.1495
     29 C         140.2033  137.7835  163.7792 C.3     1  UNL1        0.0570
     30 C         141.0816  136.8974  164.6118 C.3     1  UNL1        0.0196
     31 C         138.9191  137.6724  164.5462 C.3     1  UNL1        0.0196
     32 C         138.9850  138.5241  163.3132 C.3     1  UNL1        0.0196
@<TRIPOS>BOND
     1    13    12    1
     2    13    14    1
     3    14    15   am
     4    15    16    2
     5    15    17    1
     6    17    18    2
     7    18    19    1
     8    19     1    1
     9     1     2   ar
    10     2     3   ar
    11     3     4   ar
    12     4     5   ar
    13     5     6   ar
    14     6     7    2
    15     6     8   ar
    16     8    23    1
    17    23    24    1
    18    23    25    1
    19    25    26    1
    20     8     9   ar
    21     9    27    1
    22    27    29    1
    23    29    30    1
    24    29    31    1
    25    31    32    1
    26     9    10   ar
    27    10    11   ar
    28    19    20    2
    29    20    21    1
    30    21    13    1
    31    21    17    1
    32    11     1   ar
    33    11     5   ar
    34    26    23    1
    35    32    29    1
    36    14    22    1
    37    27    28    1
@<TRIPOS>MOLECULE
*****
 32 37 0 0 0
SMALL
GASTEIGER

@<TRIPOS>ATOM
      1 C         140.1273  143.5046  163.6816 C.ar    1  UNL1        0.0351
      2 C         139.3490  144.7849  163.6128 C.ar    1  UNL1        0.0030
      3 C         139.5181  145.7033  162.4389 C.ar    1  UNL1        0.0003
      4 C         140.4655  145.3412  161.3338 C.ar    1  UNL1        0.0063
      5 C         141.2438  144.0608  161.4025 C.ar    1  UNL1        0.0740
      6 C         142.1912  143.6988  160.2974 C.ar    1  UNL1        0.2641
      7 O         142.3603  144.6171  159.1235 O.2     1  UNL1       -0.2669
      8 N         142.9695  142.4184  160.3661 N.ar    1  UNL1       -0.2725
      9 C         142.8005  141.5000  161.5400 C.ar    1  UNL1        0.1999
     10 N         141.8531  141.8620  162.6452 N.ar    1  UNL1       -0.2150
     11 C         141.0747  143.1425  162.5764 C.ar    1  UNL1        0.0901
     12 C         137.8999  138.4696  166.7032 C.3     1  UNL1        0.0237
     13 C         138.8087  139.5888  167.1174 C.3     1  UNL1        0.0985
     14 N         139.4379  139.7596  168.4683 N.am    1  UNL1       -0.3004
     15 C         140.2659  141.0100  168.4392 C.2     1  UNL1        0.2438
     16 O         141.0702  141.5616  169.5788 O.2     1  UNL1       -0.2704
     17 C         140.1484  141.6121  167.0703 C.2     1  UNL1        0.0563
     18 C         140.5875  142.7569  166.2064 C.2     1  UNL1        0.0209
     19 C         139.9583  142.5861  164.8555 C.2     1  UNL1        0.0777
     20 N         139.1303  141.3357  164.8846 N.2     1  UNL1       -0.2660
     21 C         139.2478  140.7337  166.2534 C.3     1  UNL1        0.1476
     22 H         139.3270  139.1568  169.2387 H       1  UNL1        0.1498
     23 C         143.9169  142.0563  159.2610 C.3     1  UNL1        0.0738
     24 C         145.1760  142.6842  159.7811 C.3     1  UNL1        0.0228
     25 C         144.4270  141.4762  157.9752 C.3     1  UNL1        0.0228
     26 C         142.9869  141.3027  158.3570 C.3     1  UNL1        0.0228
     27 N         143.5788  140.2196  161.6088 N.pl3   1  UNL1       -0.3074
     28 H         143.7332  139.6929  160.7915 H       1  UNL1        0.1495
     29 C         144.1219  139.7416  162.9228 C.3     1  UNL1        0.0570
     30 C         143.2735  138.5216  163.1269 C.3     1  UNL1        0.0196
     31 C         144.9596  139.6873  164.1659 C.3     1  UNL1        0.0196
     32 C         145.1588  140.7957  163.1750 C.3     1  UNL1        0.0196
@<TRIPOS>BOND
     1    13    12    1
     2    13    14    1
     3    14    15   am
     4    15    16    2
     5    15    17    1
     6    17    18    2
     7    18    19    1
     8    19     1    1
     9     1     2   ar
    10     2     3   ar
    11     3     4   ar
    12     4     5   ar
    13     5     6   ar
    14     6     7    2
    15     6     8   ar
    16     8    23    1
    17    23    24    1
    18    23    25    1
    19    25    26    1
    20     8     9   ar
    21     9    27    1
    22    27    29    1
    23    29    30    1
    24    29    31    1
    25    31    32    1
    26     9    10   ar
    27    10    11   ar
    28    19    20    2
    29    20    21    1
    30    21    13    1
    31    21    17    1
    32    11     1   ar
    33    11     5   ar
    34    26    23    1
    35    32    29    1
    36    14    22    1
    37    27    28    1
@<TRIPOS>MOLECULE
*****
 32 37 0 0 0
SMALL
GASTEIGER

@<TRIPOS>ATOM
      1 C         140.8763  139.0898  162.8707 C.ar    1  UNL1        0.0351
      2 C         141.7028  137.8986  162.4863 C.ar    1  UNL1        0.0030
      3 C         142.3220  137.8242  161.1221 C.ar    1  UNL1        0.0003
      4 C         142.1147  138.9409  160.1424 C.ar    1  UNL1        0.0063
      5 C         141.2882  140.1321  160.5269 C.ar    1  UNL1        0.0740
      6 C         141.0808  141.2489  159.5471 C.ar    1  UNL1        0.2641
      7 O         141.7000  141.1745  158.1830 O.2     1  UNL1       -0.2669
      8 N         140.2543  142.4401  159.9316 N.ar    1  UNL1       -0.2725
      9 C         139.6350  142.5146  161.2958 C.ar    1  UNL1        0.1999
     10 N         139.8424  141.3978  162.2755 N.ar    1  UNL1       -0.2150
     11 C         140.6690  140.2066  161.8910 C.ar    1  UNL1        0.0901
     12 C         140.4044  141.0623  168.8145 C.3     1  UNL1        0.0237
     13 C         139.5796  140.1264  167.9816 C.3     1  UNL1        0.0985
     14 N         138.3513  139.3936  168.4336 N.am    1  UNL1       -0.3004
     15 C         137.8510  138.5732  167.2818 C.2     1  UNL1        0.2438
     16 O         136.6435  137.6833  167.2919 O.2     1  UNL1       -0.2704
     17 C         138.7700  138.7989  166.1180 C.2     1  UNL1        0.0563
     18 C         139.0287  138.4315  164.6869 C.2     1  UNL1        0.0209
     19 C         140.2570  139.1643  164.2350 C.2     1  UNL1        0.0777
     20 N         140.7574  139.9847  165.3868 N.2     1  UNL1       -0.2660
     21 C         139.8384  139.7589  166.5505 C.3     1  UNL1        0.1476
     22 H         137.9449  139.4425  169.3289 H       1  UNL1        0.1498
     23 C         140.0470  143.5569  158.9519 C.3     1  UNL1        0.0738
     24 C         138.8440  143.0408  158.2193 C.3     1  UNL1        0.0228
     25 C         140.2574  144.8528  158.2266 C.3     1  UNL1        0.0228
     26 C         141.1779  144.4608  159.3441 C.3     1  UNL1        0.0228
     27 N         138.8085  143.7058  161.6803 N.pl3   1  UNL1       -0.3074
     28 H         138.2188  144.1307  161.0163 H       1  UNL1        0.1495
     29 C         138.8804  144.2495  163.0765 C.3     1  UNL1        0.0570
     30 C         137.5400  143.8182  163.5932 C.3     1  UNL1        0.0196
     31 C         139.4178  144.9430  164.2931 C.3     1  UNL1        0.0196
     32 C         140.2458  144.8696  163.0444 C.3     1  UNL1        0.0196
@<TRIPOS>BOND
     1    13    12    1
     2    13    14    1
     3    14    15   am
     4    15    16    2
     5    15    17    1
     6    17    18    2
     7    18    19    1
     8    19     1    1
     9     1     2   ar
    10     2     3   ar
    11     3     4   ar
    12     4     5   ar
    13     5     6   ar
    14     6     7    2
    15     6     8   ar
    16     8    23    1
    17    23    24    1
    18    23    25    1
    19    25    26    1
    20     8     9   ar
    21     9    27    1
    22    27    29    1
    23    29    30    1
    24    29    31    1
    25    31    32    1
    26     9    10   ar
    27    10    11   ar
    28    19    20    2
    29    20    21    1
    30    21    13    1
    31    21    17    1
    32    11     1   ar
    33    11     5   ar
    34    26    23    1
    35    32    29    1
    36    14    22    1
    37    27    28    1
