@<TRIPOS>MOLECULE
*****
 19 20 0 0 0
SMALL
GASTEIGER

@<TRIPOS>ATOM
      1 C         139.4148  143.2239  166.0762 C.2     1  UNL1        0.0016
      2 C         140.6831  142.8012  166.7565 C.2     1  UNL1        0.0031
      3 C         140.6251  142.0857  168.0736 C.ar    1  UNL1        0.0380
      4 C         140.3913  142.8589  169.3376 C.ar    1  UNL1        0.1409
      5 F         140.2155  144.3475  169.2845 F       1  UNL1       -0.2041
      6 C         140.3334  142.1433  170.6546 C.ar    1  UNL1        0.0297
      7 C         140.5092  140.6545  170.7077 C.ar    1  UNL1        0.0032
      8 C         140.7430  139.8814  169.4437 C.ar    1  UNL1        0.0115
      9 C         140.8010  140.5970  168.1267 C.ar    1  UNL1        0.0598
     10 CL        141.0348  139.8239  166.8627 Cl      1  UNL1       -0.0822
     11 C         139.5887  145.3706  162.1251 C.ar    1  UNL1        0.1285
     12 C         140.8338  145.2076  162.9455 C.ar    1  UNL1        0.0341
     13 C         140.7758  144.4921  164.2625 C.ar    1  UNL1        0.0044
     14 C         139.4728  143.9395  164.7592 C.ar    1  UNL1        0.0193
     15 C         138.2277  144.1025  163.9388 C.ar    1  UNL1        0.1002
     16 N         138.2856  144.8181  162.6217 N.ar    1  UNL1       -0.2294
     17 C         140.3232  145.4428  159.6340 C.3     1  UNL1        0.1096
     18 N         139.6466  146.0862  160.8080 N.pl3   1  UNL1       -0.3167
     19 H         139.2406  146.9781  160.7141 H       1  UNL1        0.1482
@<TRIPOS>BOND
     1    17    18    1
     2    18    11    1
     3    11    12   ar
     4    12    13   ar
     5    13    14   ar
     6    14     1    1
     7     1     2    2
     8     2     3    1
     9     3     4   ar
    10     4     5    1
    11     4     6   ar
    12     6     7   ar
    13     7     8   ar
    14     8     9   ar
    15     9    10    1
    16    14    15   ar
    17    15    16   ar
    18    16    11   ar
    19     9     3   ar
    20    18    19    1
@<TRIPOS>MOLECULE
*****
 19 20 0 0 0
SMALL
GASTEIGER

@<TRIPOS>ATOM
      1 C         139.6139  142.9649  166.3586 C.2     1  UNL1        0.0016
      2 C         140.8924  142.7367  167.1092 C.2     1  UNL1        0.0031
      3 C         140.8787  141.9691  168.3979 C.ar    1  UNL1        0.0380
      4 C         141.0732  140.4818  168.3870 C.ar    1  UNL1        0.1409
      5 F         141.2813  139.7621  167.0875 F       1  UNL1       -0.2041
      6 C         141.0595  139.7142  169.6757 C.ar    1  UNL1        0.0297
      7 C         140.8514  140.4340  170.9752 C.ar    1  UNL1        0.0032
      8 C         140.6570  141.9213  170.9860 C.ar    1  UNL1        0.0115
      9 C         140.6706  142.6888  169.6974 C.ar    1  UNL1        0.0598
     10 CL        140.4762  144.1761  169.7082 Cl      1  UNL1       -0.0822
     11 C         139.6549  145.2676  162.4926 C.ar    1  UNL1        0.1285
     12 C         140.9368  145.0176  163.2303 C.ar    1  UNL1        0.0341
     13 C         140.9231  144.2500  164.5189 C.ar    1  UNL1        0.0044
     14 C         139.6276  143.7325  165.0700 C.ar    1  UNL1        0.0193
     15 C         138.3457  143.9826  164.3323 C.ar    1  UNL1        0.1002
     16 N         138.3593  144.7502  163.0437 N.ar    1  UNL1       -0.2294
     17 C         140.3330  145.4535  159.9916 C.3     1  UNL1        0.1096
     18 N         139.6685  146.0352  161.2040 N.pl3   1  UNL1       -0.3167
     19 H         139.2413  146.9208  161.1540 H       1  UNL1        0.1482
@<TRIPOS>BOND
     1    17    18    1
     2    18    11    1
     3    11    12   ar
     4    12    13   ar
     5    13    14   ar
     6    14     1    1
     7     1     2    2
     8     2     3    1
     9     3     4   ar
    10     4     5    1
    11     4     6   ar
    12     6     7   ar
    13     7     8   ar
    14     8     9   ar
    15     9    10    1
    16    14    15   ar
    17    15    16   ar
    18    16    11   ar
    19     9     3   ar
    20    18    19    1
@<TRIPOS>MOLECULE
*****
 19 20 0 0 0
SMALL
GASTEIGER

@<TRIPOS>ATOM
      1 C         139.7085  139.6887  166.4061 C.2     1  UNL1        0.0016
      2 C         139.9882  141.0005  167.0776 C.2     1  UNL1        0.0031
      3 C         140.6375  141.0276  168.4295 C.ar    1  UNL1        0.0380
      4 C         139.8809  140.5530  169.6347 C.ar    1  UNL1        0.1409
      5 F         138.4749  140.0513  169.4879 F       1  UNL1       -0.2041
      6 C         140.5303  140.5802  170.9866 C.ar    1  UNL1        0.0297
      7 C         141.9363  141.0819  171.1333 C.ar    1  UNL1        0.0032
      8 C         142.6929  141.5564  169.9282 C.ar    1  UNL1        0.0115
      9 C         142.0435  141.5293  168.5763 C.ar    1  UNL1        0.0598
     10 CL        142.8000  142.0038  167.3712 Cl      1  UNL1       -0.0822
     11 C         137.7604  139.6072  162.3505 C.ar    1  UNL1        0.1285
     12 C         137.6359  140.8245  163.2180 C.ar    1  UNL1        0.0341
     13 C         138.2853  140.8517  164.5699 C.ar    1  UNL1        0.0044
     14 C         139.0591  139.6615  165.0543 C.ar    1  UNL1        0.0193
     15 C         139.1837  138.4443  164.1867 C.ar    1  UNL1        0.1002
     16 N         138.5343  138.4171  162.8348 N.ar    1  UNL1       -0.2294
     17 C         137.8632  140.0662  159.7954 C.3     1  UNL1        0.1096
     18 N         137.1110  139.5801  160.9986 N.pl3   1  UNL1       -0.3167
     19 H         136.1911  139.2433  160.9011 H       1  UNL1        0.1482
@<TRIPOS>BOND
     1    17    18    1
     2    18    11    1
     3    11    12   ar
     4    12    13   ar
     5    13    14   ar
     6    14     1    1
     7     1     2    2
     8     2     3    1
     9     3     4   ar
    10     4     5    1
    11     4     6   ar
    12     6     7   ar
    13     7     8   ar
    14     8     9   ar
    15     9    10    1
    16    14    15   ar
    17    15    16   ar
    18    16    11   ar
    19     9     3   ar
    20    18    19    1
@<TRIPOS>MOLECULE
*****
 19 20 0 0 0
SMALL
GASTEIGER

@<TRIPOS>ATOM
      1 C         139.8343  140.9545  166.7755 C.2     1  UNL1        0.0016
      2 C         140.4264  141.7300  165.6362 C.2     1  UNL1        0.0031
      3 C         139.5295  142.3710  164.6190 C.ar    1  UNL1        0.0380
      4 C         138.8935  143.6980  164.9101 C.ar    1  UNL1        0.1409
      5 F         139.1544  144.3839  166.2183 F       1  UNL1       -0.2041
      6 C         137.9966  144.3390  163.8929 C.ar    1  UNL1        0.0297
      7 C         137.7357  143.6531  162.5847 C.ar    1  UNL1        0.0032
      8 C         138.3717  142.3262  162.2936 C.ar    1  UNL1        0.0115
      9 C         139.2686  141.6851  163.3108 C.ar    1  UNL1        0.0598
     10 CL        139.9046  140.3582  163.0198 Cl      1  UNL1       -0.0822
     11 C         142.5250  139.0314  169.8271 C.ar    1  UNL1        0.1285
     12 C         141.1890  139.5734  170.2407 C.ar    1  UNL1        0.0341
     13 C         140.2921  140.2145  169.2235 C.ar    1  UNL1        0.0044
     14 C         140.7312  140.3134  167.7927 C.ar    1  UNL1        0.0193
     15 C         142.0673  139.7714  167.3791 C.ar    1  UNL1        0.1002
     16 N         142.9642  139.1304  168.3962 N.ar    1  UNL1       -0.2294
     17 C         143.7667  136.9351  170.7291 C.3     1  UNL1        0.1096
     18 N         143.4219  138.3903  170.8442 N.pl3   1  UNL1       -0.3167
     19 H         143.7843  138.9248  171.5874 H       1  UNL1        0.1482
@<TRIPOS>BOND
     1    17    18    1
     2    18    11    1
     3    11    12   ar
     4    12    13   ar
     5    13    14   ar
     6    14     1    1
     7     1     2    2
     8     2     3    1
     9     3     4   ar
    10     4     5    1
    11     4     6   ar
    12     6     7   ar
    13     7     8   ar
    14     8     9   ar
    15     9    10    1
    16    14    15   ar
    17    15    16   ar
    18    16    11   ar
    19     9     3   ar
    20    18    19    1
@<TRIPOS>MOLECULE
*****
 19 20 0 0 0
SMALL
GASTEIGER

@<TRIPOS>ATOM
      1 C         140.1556  139.8964  166.6505 C.2     1  UNL1        0.0016
      2 C         140.1309  141.2661  167.2614 C.2     1  UNL1        0.0031
      3 C         140.8399  141.5218  168.5583 C.ar    1  UNL1        0.0380
      4 C         142.1964  142.1623  168.5579 C.ar    1  UNL1        0.1409
      5 F         142.8438  142.5470  167.2607 F       1  UNL1       -0.2041
      6 C         142.9054  142.4180  169.8548 C.ar    1  UNL1        0.0297
      7 C         142.2580  142.0332  171.1521 C.ar    1  UNL1        0.0032
      8 C         140.9016  141.3928  171.1524 C.ar    1  UNL1        0.0115
      9 C         140.1926  141.1371  169.8555 C.ar    1  UNL1        0.0598
     10 CL        138.8362  140.4967  169.8559 Cl      1  UNL1       -0.0822
     11 C         138.0286  139.1293  162.7598 C.ar    1  UNL1        0.1285
     12 C         137.9359  140.4768  163.4123 C.ar    1  UNL1        0.0341
     13 C         138.6449  140.7325  164.7092 C.ar    1  UNL1        0.0044
     14 C         139.4466  139.6407  165.3536 C.ar    1  UNL1        0.0193
     15 C         139.5394  138.2933  164.7011 C.ar    1  UNL1        0.1002
     16 N         138.8304  138.0376  163.4042 N.ar    1  UNL1       -0.2294
     17 C         137.4789  139.8314  160.3196 C.3     1  UNL1        0.1096
     18 N         137.3196  138.8736  161.4630 N.pl3   1  UNL1       -0.3167
     19 H         136.7497  138.0772  161.3622 H       1  UNL1        0.1482
@<TRIPOS>BOND
     1    17    18    1
     2    18    11    1
     3    11    12   ar
     4    12    13   ar
     5    13    14   ar
     6    14     1    1
     7     1     2    2
     8     2     3    1
     9     3     4   ar
    10     4     5    1
    11     4     6   ar
    12     6     7   ar
    13     7     8   ar
    14     8     9   ar
    15     9    10    1
    16    14    15   ar
    17    15    16   ar
    18    16    11   ar
    19     9     3   ar
    20    18    19    1
@<TRIPOS>MOLECULE
*****
 19 20 0 0 0
SMALL
GASTEIGER

@<TRIPOS>ATOM
      1 C         142.3620  139.4447  166.4680 C.2     1  UNL1        0.0016
      2 C         141.6712  140.7558  166.7001 C.2     1  UNL1        0.0031
      3 C         141.4864  141.2690  168.0974 C.ar    1  UNL1        0.0380
      4 C         142.4942  142.2085  168.6908 C.ar    1  UNL1        0.1409
      5 F         143.6866  142.6346  167.8868 F       1  UNL1       -0.2041
      6 C         142.3093  142.7218  170.0880 C.ar    1  UNL1        0.0297
      7 C         141.1168  142.2956  170.8920 C.ar    1  UNL1        0.0032
      8 C         140.1091  141.3562  170.2987 C.ar    1  UNL1        0.0115
      9 C         140.2939  140.8429  168.9014 C.ar    1  UNL1        0.0598
     10 CL        139.2863  139.9035  168.3080 Cl      1  UNL1       -0.0822
     11 C         142.9164  137.9049  162.2761 C.ar    1  UNL1        0.1285
     12 C         141.6740  137.5615  163.0431 C.ar    1  UNL1        0.0341
     13 C         141.4892  138.0748  164.4403 C.ar    1  UNL1        0.0044
     14 C         142.5468  138.9315  165.0707 C.ar    1  UNL1        0.0193
     15 C         143.7893  139.2749  164.3037 C.ar    1  UNL1        0.1002
     16 N         143.9741  138.7617  162.9064 N.ar    1  UNL1       -0.2294
     17 C         142.7491  138.2606  159.7079 C.3     1  UNL1        0.1096
     18 N         143.1013  137.3917  160.8788 N.pl3   1  UNL1       -0.3167
     19 H         143.4537  136.4845  160.7302 H       1  UNL1        0.1482
@<TRIPOS>BOND
     1    17    18    1
     2    18    11    1
     3    11    12   ar
     4    12    13   ar
     5    13    14   ar
     6    14     1    1
     7     1     2    2
     8     2     3    1
     9     3     4   ar
    10     4     5    1
    11     4     6   ar
    12     6     7   ar
    13     7     8   ar
    14     8     9   ar
    15     9    10    1
    16    14    15   ar
    17    15    16   ar
    18    16    11   ar
    19     9     3   ar
    20    18    19    1
@<TRIPOS>MOLECULE
*****
 19 20 0 0 0
SMALL
GASTEIGER

@<TRIPOS>ATOM
      1 C         142.5379  139.4186  166.5008 C.2     1  UNL1        0.0016
      2 C         142.0329  140.7553  166.9568 C.2     1  UNL1        0.0031
      3 C         141.5735  140.9403  168.3727 C.ar    1  UNL1        0.0380
      4 C         140.2784  140.3345  168.8263 C.ar    1  UNL1        0.1409
      5 F         139.4426  139.5437  167.8640 F       1  UNL1       -0.2041
      6 C         139.8191  140.5195  170.2422 C.ar    1  UNL1        0.0297
      7 C         140.6549  141.3103  171.2046 C.ar    1  UNL1        0.0032
      8 C         141.9500  141.9161  170.7510 C.ar    1  UNL1        0.0115
      9 C         142.4093  141.7311  169.3351 C.ar    1  UNL1        0.0598
     10 CL        143.7044  142.3368  168.8815 Cl      1  UNL1       -0.0822
     11 C         143.9158  138.8636  162.2530 C.ar    1  UNL1        0.1285
     12 C         144.6308  139.8267  163.1536 C.ar    1  UNL1        0.0341
     13 C         144.1714  140.0117  164.5696 C.ar    1  UNL1        0.0044
     14 C         142.9972  139.2336  165.0848 C.ar    1  UNL1        0.0193
     15 C         142.2822  138.2704  164.1842 C.ar    1  UNL1        0.1002
     16 N         142.7416  138.0854  162.7683 N.ar    1  UNL1       -0.2294
     17 C         143.7766  139.5081  159.7400 C.3     1  UNL1        0.1096
     18 N         144.3751  138.6786  160.8371 N.pl3   1  UNL1       -0.3167
     19 H         145.0694  138.0126  160.6279 H       1  UNL1        0.1482
@<TRIPOS>BOND
     1    17    18    1
     2    18    11    1
     3    11    12   ar
     4    12    13   ar
     5    13    14   ar
     6    14     1    1
     7     1     2    2
     8     2     3    1
     9     3     4   ar
    10     4     5    1
    11     4     6   ar
    12     6     7   ar
    13     7     8   ar
    14     8     9   ar
    15     9    10    1
    16    14    15   ar
    17    15    16   ar
    18    16    11   ar
    19     9     3   ar
    20    18    19    1
@<TRIPOS>MOLECULE
*****
 19 20 0 0 0
SMALL
GASTEIGER

@<TRIPOS>ATOM
      1 C         142.6431  142.6758  166.0176 C.2     1  UNL1        0.0016
      2 C         141.4698  142.0264  166.6896 C.2     1  UNL1        0.0031
      3 C         141.6258  141.4250  168.0549 C.ar    1  UNL1        0.0380
      4 C         142.3176  140.1040  168.2179 C.ar    1  UNL1        0.1409
      5 F         142.8533  139.3845  167.0157 F       1  UNL1       -0.2041
      6 C         142.4736  139.5026  169.5832 C.ar    1  UNL1        0.0297
      7 C         141.9378  140.2221  170.7854 C.ar    1  UNL1        0.0032
      8 C         141.2461  141.5430  170.6223 C.ar    1  UNL1        0.0115
      9 C         141.0900  142.1445  169.2571 C.ar    1  UNL1        0.0598
     10 CL        140.3983  143.4654  169.0940 Cl      1  UNL1       -0.0822
     11 C         142.1750  144.4801  161.9218 C.ar    1  UNL1        0.1285
     12 C         140.9759  144.3052  162.8058 C.ar    1  UNL1        0.0341
     13 C         141.1319  143.7038  164.1710 C.ar    1  UNL1        0.0044
     14 C         142.4870  143.2772  164.6523 C.ar    1  UNL1        0.0193
     15 C         143.6862  143.4521  163.7683 C.ar    1  UNL1        0.1002
     16 N         143.5301  144.0535  162.4030 N.ar    1  UNL1       -0.2294
     17 C         140.6497  145.3638  160.0134 C.3     1  UNL1        0.1096
     18 N         142.0190  145.0815  160.5565 N.pl3   1  UNL1       -0.3167
     19 H         142.8154  145.2910  160.0170 H       1  UNL1        0.1482
@<TRIPOS>BOND
     1    17    18    1
     2    18    11    1
     3    11    12   ar
     4    12    13   ar
     5    13    14   ar
     6    14     1    1
     7     1     2    2
     8     2     3    1
     9     3     4   ar
    10     4     5    1
    11     4     6   ar
    12     6     7   ar
    13     7     8   ar
    14     8     9   ar
    15     9    10    1
    16    14    15   ar
    17    15    16   ar
    18    16    11   ar
    19     9     3   ar
    20    18    19    1
@<TRIPOS>MOLECULE
*****
 19 20 0 0 0
SMALL
GASTEIGER

@<TRIPOS>ATOM
      1 C         142.3749  142.2537  166.2994 C.2     1  UNL1        0.0016
      2 C         142.7713  141.1944  167.2846 C.2     1  UNL1        0.0031
      3 C         142.0388  141.0702  168.5876 C.ar    1  UNL1        0.0380
      4 C         140.7142  140.3680  168.6395 C.ar    1  UNL1        0.1409
      5 F         140.1223  139.7901  167.3883 F       1  UNL1       -0.2041
      6 C         139.9817  140.2439  169.9425 C.ar    1  UNL1        0.0297
      7 C         140.5737  140.8219  171.1938 C.ar    1  UNL1        0.0032
      8 C         141.8982  141.5240  171.1419 C.ar    1  UNL1        0.0115
      9 C         142.6307  141.6482  169.8388 C.ar    1  UNL1        0.0598
     10 CL        143.9552  142.3503  169.7869 Cl      1  UNL1       -0.0822
     11 C         144.5725  142.6262  162.3901 C.ar    1  UNL1        0.1285
     12 C         144.0392  143.8520  163.0705 C.ar    1  UNL1        0.0341
     13 C         143.3067  143.7278  164.3736 C.ar    1  UNL1        0.0044
     14 C         143.1075  142.3779  164.9963 C.ar    1  UNL1        0.0193
     15 C         143.6408  141.1520  164.3159 C.ar    1  UNL1        0.1002
     16 N         144.3733  141.2762  163.0129 N.ar    1  UNL1       -0.2294
     17 C         144.5736  142.5480  159.7933 C.3     1  UNL1        0.1096
     18 N         145.3051  142.7503  161.0871 N.pl3   1  UNL1       -0.3167
     19 H         146.2659  142.9646  161.0810 H       1  UNL1        0.1482
@<TRIPOS>BOND
     1    17    18    1
     2    18    11    1
     3    11    12   ar
     4    12    13   ar
     5    13    14   ar
     6    14     1    1
     7     1     2    2
     8     2     3    1
     9     3     4   ar
    10     4     5    1
    11     4     6   ar
    12     6     7   ar
    13     7     8   ar
    14     8     9   ar
    15     9    10    1
    16    14    15   ar
    17    15    16   ar
    18    16    11   ar
    19     9     3   ar
    20    18    19    1
