@<TRIPOS>MOLECULE
*****
 38 42 0 0 0
SMALL
GASTEIGER

@<TRIPOS>ATOM
      1 N         139.5667  143.3993  161.4608 N.3     1  UNL1       -0.2750
      2 C         138.8138  142.4441  160.5830 C.3     1  UNL1        0.0737
      3 C         138.8523  142.6059  159.0922 C.3     1  UNL1        0.0371
      4 C         139.6438  143.7230  158.4793 C.3     1  UNL1        0.0759
      5 C         140.3968  144.6781  159.3571 C.3     1  UNL1        0.0371
      6 C         140.3583  144.5163  160.8478 C.3     1  UNL1        0.0737
      7 C         141.0794  140.4923  166.1621 C.2     1  UNL1        0.2542
      8 O         141.9234  139.3084  165.7933 O.2     1  UNL1       -0.2697
      9 N         140.5623  141.4073  165.0920 N.am    1  UNL1       -0.2758
     10 C         140.8893  141.1385  163.6529 C.3     1  UNL1        0.0951
     11 C         140.3723  142.0536  162.5827 C.3     1  UNL1        0.0362
     12 C         139.5282  143.2374  162.9515 C.3     1  UNL1        0.0487
     13 C         138.6976  144.4775  162.8026 C.3     1  UNL1        0.0161
     14 C         139.2013  143.5063  164.3905 C.3     1  UNL1        0.0362
     15 C         139.7183  142.5912  165.4608 C.3     1  UNL1        0.0951
     16 C         142.8961  142.2131  167.8171 C.3     1  UNL1        0.0316
     17 C         141.6607  141.6215  168.4286 C.ar    1  UNL1       -0.0058
     18 C         141.3338  141.8903  169.8676 C.ar    1  UNL1        0.0730
     19 C         140.0984  141.2987  170.4792 C.ar    1  UNL1        0.3010
     20 N         139.1901  140.4384  169.6518 N.ar    1  UNL1       -0.1606
     21 O         137.9548  139.8468  170.2634 O.co2   1  UNL1       -0.6190
     22 C         139.5171  140.1696  168.2128 C.ar    1  UNL1        0.2180
     23 C         138.6087  139.3092  167.3853 C.3     1  UNL1        0.1093
     24 C         140.7524  140.7611  167.6012 C.ar    1  UNL1        0.1099
     25 N         139.6823  143.8848  156.9886 N.pl3   1  UNL1       -0.3051
     26 C         138.6929  143.1550  156.1292 C.ar    1  UNL1        0.0480
     27 C         139.0649  141.8419  155.5069 C.ar    1  UNL1        0.0145
     28 C         138.0754  141.1121  154.6475 C.ar    1  UNL1        0.0013
     29 C         136.7141  141.6955  154.4104 C.ar    1  UNL1        0.0001
     30 C         136.3421  143.0087  155.0326 C.ar    1  UNL1        0.0013
     31 C         137.3315  143.7384  155.8921 C.ar    1  UNL1        0.0145
     32 C         140.7102  144.7762  156.3571 C.3     1  UNL1        0.1177
     33 C         140.2911  146.0626  155.7093 C.ar    1  UNL1       -0.0024
     34 C         139.3153  146.9677  156.4010 C.ar    1  UNL1       -0.0026
     35 C         138.8963  148.2540  155.7532 C.ar    1  UNL1       -0.0003
     36 C         139.4532  148.6352  154.4135 C.ar    1  UNL1       -0.0000
     37 C         140.4290  147.7302  153.7218 C.ar    1  UNL1       -0.0003
     38 C         140.8480  146.4438  154.3696 C.ar    1  UNL1       -0.0026
@<TRIPOS>UNITY_ATOM_ATTR
20 1
charge 1
21 1
charge -1
@<TRIPOS>BOND
     1    16    17    1
     2    17    18   ar
     3    18    19   ar
     4    19    20   ar
     5    20    21    1
     6    20    22   ar
     7    22    23    1
     8    22    24   ar
     9    24     7    1
    10     7     8    2
    11     7     9   am
    12     9    10    1
    13    10    11    1
    14    11    12    1
    15    12    13    1
    16    12     1    1
    17     1     2    1
    18     2     3    1
    19     3     4    1
    20     4    25    1
    21    25    32    1
    22    32    33    1
    23    33    34   ar
    24    34    35   ar
    25    35    36   ar
    26    36    37   ar
    27    37    38   ar
    28    25    26    1
    29    26    27   ar
    30    27    28   ar
    31    28    29   ar
    32    29    30   ar
    33    30    31   ar
    34     4     5    1
    35     5     6    1
    36    12    14    1
    37    14    15    1
    38    24    17   ar
    39    15     9    1
    40     6     1    1
    41    38    33   ar
    42    31    26   ar
@<TRIPOS>MOLECULE
*****
 38 42 0 0 0
SMALL
GASTEIGER

@<TRIPOS>ATOM
      1 N         139.4885  143.3408  161.4178 N.3     1  UNL1       -0.2750
      2 C         140.3579  144.4006  160.8090 C.3     1  UNL1        0.0737
      3 C         140.4101  144.5632  159.3188 C.3     1  UNL1        0.0371
      4 C         139.5927  143.6659  158.4373 C.3     1  UNL1        0.0759
      5 C         138.7233  142.6061  159.0461 C.3     1  UNL1        0.0371
      6 C         138.6711  142.4435  160.5364 C.3     1  UNL1        0.0737
      7 C         141.1384  140.5650  166.1521 C.2     1  UNL1        0.2542
      8 O         142.0779  139.4496  165.8011 O.2     1  UNL1       -0.2697
      9 N         140.5710  141.4360  165.0708 N.am    1  UNL1       -0.2758
     10 C         140.9432  141.1917  163.6383 C.3     1  UNL1        0.0951
     11 C         140.3758  142.0628  162.5570 C.3     1  UNL1        0.0362
     12 C         139.4363  143.1781  162.9080 C.3     1  UNL1        0.0487
     13 C         138.5149  144.3500  162.7415 C.3     1  UNL1        0.0161
     14 C         139.0641  143.4225  164.3404 C.3     1  UNL1        0.0362
     15 C         139.6315  142.5514  165.4218 C.3     1  UNL1        0.0951
     16 C         138.6663  139.3072  167.2953 C.3     1  UNL1        0.0316
     17 C         139.5302  140.1804  168.1561 C.ar    1  UNL1       -0.0058
     18 C         139.1581  140.4247  169.5885 C.ar    1  UNL1        0.0730
     19 C         140.0220  141.2980  170.4494 C.ar    1  UNL1        0.3010
     20 N         141.2581  141.9269  169.8779 N.ar    1  UNL1       -0.1606
     21 O         142.1220  142.8001  170.7387 O.co2   1  UNL1       -0.6190
     22 C         141.6302  141.6825  168.4455 C.ar    1  UNL1        0.2180
     23 C         142.8662  142.3115  167.8739 C.3     1  UNL1        0.1093
     24 C         140.7662  140.8093  167.5846 C.ar    1  UNL1        0.1099
     25 N         139.6449  143.8286  156.9471 N.pl3   1  UNL1       -0.3051
     26 C         138.6643  143.0982  156.0781 C.ar    1  UNL1        0.0480
     27 C         137.3151  143.6940  155.8053 C.ar    1  UNL1        0.0145
     28 C         136.3345  142.9636  154.9363 C.ar    1  UNL1        0.0013
     29 C         136.7032  141.6374  154.3403 C.ar    1  UNL1        0.0001
     30 C         138.0524  141.0416  154.6132 C.ar    1  UNL1        0.0013
     31 C         139.0330  141.7720  155.4821 C.ar    1  UNL1        0.0145
     32 C         140.6776  144.7216  156.3257 C.3     1  UNL1        0.1177
     33 C         140.2685  146.0281  155.7129 C.ar    1  UNL1       -0.0024
     34 C         139.2966  146.9198  156.4271 C.ar    1  UNL1       -0.0026
     35 C         138.8875  148.2264  155.8142 C.ar    1  UNL1       -0.0003
     36 C         139.4505  148.6412  154.4872 C.ar    1  UNL1       -0.0000
     37 C         140.4225  147.7496  153.7730 C.ar    1  UNL1       -0.0003
     38 C         140.8315  146.4430  154.3858 C.ar    1  UNL1       -0.0026
@<TRIPOS>UNITY_ATOM_ATTR
20 1
charge 1
21 1
charge -1
@<TRIPOS>BOND
     1    16    17    1
     2    17    18   ar
     3    18    19   ar
     4    19    20   ar
     5    20    21    1
     6    20    22   ar
     7    22    23    1
     8    22    24   ar
     9    24     7    1
    10     7     8    2
    11     7     9   am
    12     9    10    1
    13    10    11    1
    14    11    12    1
    15    12    13    1
    16    12     1    1
    17     1     2    1
    18     2     3    1
    19     3     4    1
    20     4    25    1
    21    25    32    1
    22    32    33    1
    23    33    34   ar
    24    34    35   ar
    25    35    36   ar
    26    36    37   ar
    27    37    38   ar
    28    25    26    1
    29    26    27   ar
    30    27    28   ar
    31    28    29   ar
    32    29    30   ar
    33    30    31   ar
    34     4     5    1
    35     5     6    1
    36    12    14    1
    37    14    15    1
    38    24    17   ar
    39    15     9    1
    40     6     1    1
    41    38    33   ar
    42    31    26   ar
@<TRIPOS>MOLECULE
*****
 38 42 0 0 0
SMALL
GASTEIGER

@<TRIPOS>ATOM
      1 N         140.8052  139.5728  159.8553 N.3     1  UNL1       -0.2750
      2 C         140.3875  139.0282  161.1891 C.3     1  UNL1        0.0737
      3 C         140.5458  139.8650  162.4238 C.3     1  UNL1        0.0371
      4 C         141.1218  141.2465  162.3248 C.3     1  UNL1        0.0759
      5 C         141.5394  141.7911  160.9911 C.3     1  UNL1        0.0371
      6 C         141.3811  140.9543  159.7563 C.3     1  UNL1        0.0737
      7 C         143.1595  136.6377  155.5329 C.2     1  UNL1        0.2542
      8 O         144.6560  136.6936  155.6197 O.2     1  UNL1       -0.2697
      9 N         142.3220  137.3372  156.5621 N.am    1  UNL1       -0.2758
     10 C         142.9809  138.0925  157.6781 C.3     1  UNL1        0.0951
     11 C         142.1433  138.7919  158.7073 C.3     1  UNL1        0.0362
     12 C         140.6469  138.7360  158.6206 C.3     1  UNL1        0.0487
     13 C         139.2054  138.9708  158.9626 C.3     1  UNL1        0.0161
     14 C         139.9880  137.9808  157.5046 C.3     1  UNL1        0.0362
     15 C         140.8255  137.2813  156.4753 C.3     1  UNL1        0.0951
     16 C         142.4245  138.0538  152.9923 C.3     1  UNL1        0.0316
     17 C         142.1331  136.5905  153.1466 C.ar    1  UNL1       -0.0058
     18 C         141.4743  135.8352  152.0307 C.ar    1  UNL1        0.0730
     19 C         141.1830  134.3718  152.1850 C.ar    1  UNL1        0.3010
     20 N         141.5505  133.6638  153.4552 N.ar    1  UNL1       -0.1606
     21 O         141.2592  132.2005  153.6095 O.co2   1  UNL1       -0.6190
     22 C         142.2093  134.4191  154.5712 C.ar    1  UNL1        0.2180
     23 C         142.5769  133.7111  155.8415 C.3     1  UNL1        0.1093
     24 C         142.5007  135.8824  154.4169 C.ar    1  UNL1        0.1099
     25 N         141.2801  142.0833  163.5596 N.pl3   1  UNL1       -0.3051
     26 C         140.1461  142.9436  164.0330 C.ar    1  UNL1        0.0480
     27 C         140.1796  143.5378  165.4099 C.ar    1  UNL1        0.0145
     28 C         139.0457  144.3981  165.8833 C.ar    1  UNL1        0.0013
     29 C         137.8783  144.6643  164.9798 C.ar    1  UNL1        0.0001
     30 C         137.8448  144.0702  163.6029 C.ar    1  UNL1        0.0013
     31 C         138.9788  143.2098  163.1295 C.ar    1  UNL1        0.0145
     32 C         142.5722  142.0598  164.3211 C.3     1  UNL1        0.1177
     33 C         143.0062  140.8076  165.0236 C.ar    1  UNL1       -0.0024
     34 C         142.3177  140.3784  166.2851 C.ar    1  UNL1       -0.0026
     35 C         142.7517  139.1262  166.9877 C.ar    1  UNL1       -0.0003
     36 C         143.8743  138.3032  166.4286 C.ar    1  UNL1       -0.0000
     37 C         144.5629  138.7325  165.1671 C.ar    1  UNL1       -0.0003
     38 C         144.1288  139.9847  164.4645 C.ar    1  UNL1       -0.0026
@<TRIPOS>UNITY_ATOM_ATTR
20 1
charge 1
21 1
charge -1
@<TRIPOS>BOND
     1    16    17    1
     2    17    18   ar
     3    18    19   ar
     4    19    20   ar
     5    20    21    1
     6    20    22   ar
     7    22    23    1
     8    22    24   ar
     9    24     7    1
    10     7     8    2
    11     7     9   am
    12     9    10    1
    13    10    11    1
    14    11    12    1
    15    12    13    1
    16    12     1    1
    17     1     2    1
    18     2     3    1
    19     3     4    1
    20     4    25    1
    21    25    32    1
    22    32    33    1
    23    33    34   ar
    24    34    35   ar
    25    35    36   ar
    26    36    37   ar
    27    37    38   ar
    28    25    26    1
    29    26    27   ar
    30    27    28   ar
    31    28    29   ar
    32    29    30   ar
    33    30    31   ar
    34     4     5    1
    35     5     6    1
    36    12    14    1
    37    14    15    1
    38    24    17   ar
    39    15     9    1
    40     6     1    1
    41    38    33   ar
    42    31    26   ar
@<TRIPOS>MOLECULE
*****
 38 42 0 0 0
SMALL
GASTEIGER

@<TRIPOS>ATOM
      1 N         139.1607  142.8276  161.3827 N.3     1  UNL1       -0.2750
      2 C         138.4422  141.7542  160.6200 C.3     1  UNL1        0.0737
      3 C         138.4162  141.7889  159.1207 C.3     1  UNL1        0.0371
      4 C         139.1086  142.8970  158.3840 C.3     1  UNL1        0.0759
      5 C         139.8271  143.9704  159.1466 C.3     1  UNL1        0.0371
      6 C         139.8532  143.9357  160.6460 C.3     1  UNL1        0.0737
      7 C         141.1294  140.5187  166.2442 C.2     1  UNL1        0.2542
      8 O         142.0864  139.4041  165.9412 O.2     1  UNL1       -0.2697
      9 N         140.4819  141.2768  165.1235 N.am    1  UNL1       -0.2758
     10 C         140.7913  140.9202  163.6997 C.3     1  UNL1        0.0951
     11 C         140.1437  141.6782  162.5790 C.3     1  UNL1        0.0362
     12 C         139.1868  142.7929  162.8821 C.3     1  UNL1        0.0487
     13 C         138.2208  143.9195  162.6644 C.3     1  UNL1        0.0161
     14 C         138.8773  143.1494  164.3058 C.3     1  UNL1        0.0362
     15 C         139.5249  142.3914  165.4266 C.3     1  UNL1        0.0951
     16 C         138.6893  139.3915  167.5767 C.3     1  UNL1        0.0316
     17 C         139.6000  140.3117  168.3342 C.ar    1  UNL1       -0.0058
     18 C         139.2906  140.6682  169.7580 C.ar    1  UNL1        0.0730
     19 C         140.2013  141.5884  170.5156 C.ar    1  UNL1        0.3010
     20 N         141.4213  142.1520  169.8494 N.ar    1  UNL1       -0.1606
     21 O         142.3320  143.0722  170.6070 O.co2   1  UNL1       -0.6190
     22 C         141.7307  141.7955  168.4257 C.ar    1  UNL1        0.2180
     23 C         142.9507  142.3591  167.7594 C.3     1  UNL1        0.1093
     24 C         140.8200  140.8753  167.6681 C.ar    1  UNL1        0.1099
     25 N         139.0826  142.9317  156.8846 N.pl3   1  UNL1       -0.3051
     26 C         139.4369  144.1950  156.1574 C.ar    1  UNL1        0.0480
     27 C         140.8604  144.4613  155.7667 C.ar    1  UNL1        0.0145
     28 C         141.2147  145.7245  155.0395 C.ar    1  UNL1        0.0013
     29 C         140.1456  146.7213  154.7030 C.ar    1  UNL1        0.0001
     30 C         138.7221  146.4549  155.0937 C.ar    1  UNL1        0.0013
     31 C         138.3677  145.1917  155.8209 C.ar    1  UNL1        0.0145
     32 C         138.7022  141.7033  156.1124 C.3     1  UNL1        0.1177
     33 C         137.3253  141.5796  155.5304 C.ar    1  UNL1       -0.0024
     34 C         137.0547  142.0599  154.1354 C.ar    1  UNL1       -0.0026
     35 C         135.6777  141.9361  153.5535 C.ar    1  UNL1       -0.0003
     36 C         134.5714  141.3321  154.3666 C.ar    1  UNL1       -0.0000
     37 C         134.8419  140.8518  155.7616 C.ar    1  UNL1       -0.0003
     38 C         136.2189  140.9756  156.3435 C.ar    1  UNL1       -0.0026
@<TRIPOS>UNITY_ATOM_ATTR
20 1
charge 1
21 1
charge -1
@<TRIPOS>BOND
     1    16    17    1
     2    17    18   ar
     3    18    19   ar
     4    19    20   ar
     5    20    21    1
     6    20    22   ar
     7    22    23    1
     8    22    24   ar
     9    24     7    1
    10     7     8    2
    11     7     9   am
    12     9    10    1
    13    10    11    1
    14    11    12    1
    15    12    13    1
    16    12     1    1
    17     1     2    1
    18     2     3    1
    19     3     4    1
    20     4    25    1
    21    25    32    1
    22    32    33    1
    23    33    34   ar
    24    34    35   ar
    25    35    36   ar
    26    36    37   ar
    27    37    38   ar
    28    25    26    1
    29    26    27   ar
    30    27    28   ar
    31    28    29   ar
    32    29    30   ar
    33    30    31   ar
    34     4     5    1
    35     5     6    1
    36    12    14    1
    37    14    15    1
    38    24    17   ar
    39    15     9    1
    40     6     1    1
    41    38    33   ar
    42    31    26   ar
@<TRIPOS>MOLECULE
*****
 38 42 0 0 0
SMALL
GASTEIGER

@<TRIPOS>ATOM
      1 N         139.4064  140.9173  162.5487 N.3     1  UNL1       -0.2750
      2 C         139.3528  142.2859  163.1602 C.3     1  UNL1        0.0737
      3 C         140.0676  142.5595  164.4502 C.3     1  UNL1        0.0371
      4 C         140.8359  141.4644  165.1288 C.3     1  UNL1        0.0759
      5 C         140.8895  140.0958  164.5174 C.3     1  UNL1        0.0371
      6 C         140.1747  139.8222  163.2274 C.3     1  UNL1        0.0737
      7 C         139.1575  141.3598  156.8405 C.2     1  UNL1        0.2542
      8 O         140.3584  142.0942  156.3223 O.2     1  UNL1       -0.2697
      9 N         139.0022  141.1211  158.3132 N.am    1  UNL1       -0.2758
     10 C         140.0478  141.6167  159.2678 C.3     1  UNL1        0.0951
     11 C         139.8925  141.3780  160.7405 C.3     1  UNL1        0.0362
     12 C         138.6916  140.6436  161.2587 C.3     1  UNL1        0.0487
     13 C         137.7390  140.0043  162.2249 C.3     1  UNL1        0.0161
     14 C         137.6461  140.1480  160.3042 C.3     1  UNL1        0.0362
     15 C         137.8013  140.3867  158.8315 C.3     1  UNL1        0.0951
     16 C         136.9450  143.1842  155.9594 C.3     1  UNL1        0.0316
     17 C         137.0057  141.7763  155.4455 C.ar    1  UNL1       -0.0058
     18 C         135.9602  141.2806  154.4910 C.ar    1  UNL1        0.0730
     19 C         136.0209  139.8727  153.9770 C.ar    1  UNL1        0.3010
     20 N         137.1271  138.9605  154.4175 N.ar    1  UNL1       -0.1606
     21 O         137.1878  137.5527  153.9036 O.co2   1  UNL1       -0.6190
     22 C         138.1726  139.4562  155.3720 C.ar    1  UNL1        0.2180
     23 C         139.2789  138.5440  155.8126 C.3     1  UNL1        0.1093
     24 C         138.1119  140.8641  155.8860 C.ar    1  UNL1        0.1099
     25 N         141.5507  141.7381  166.4189 N.pl3   1  UNL1       -0.3051
     26 C         140.8040  141.6738  167.7183 C.ar    1  UNL1        0.0480
     27 C         140.0491  140.4317  168.0888 C.ar    1  UNL1        0.0145
     28 C         139.3024  140.3675  169.3882 C.ar    1  UNL1        0.0013
     29 C         139.3106  141.5453  170.3169 C.ar    1  UNL1        0.0001
     30 C         140.0654  142.7874  169.9464 C.ar    1  UNL1        0.0013
     31 C         140.8121  142.8516  168.6470 C.ar    1  UNL1        0.0145
     32 C         143.0121  142.0759  166.4097 C.3     1  UNL1        0.1177
     33 C         143.7762  142.0656  165.1189 C.ar    1  UNL1       -0.0024
     34 C         144.4828  140.8190  164.6756 C.ar    1  UNL1       -0.0026
     35 C         145.2469  140.8087  163.3849 C.ar    1  UNL1       -0.0003
     36 C         145.3045  142.0451  162.5375 C.ar    1  UNL1       -0.0000
     37 C         144.5979  143.2918  162.9809 C.ar    1  UNL1       -0.0003
     38 C         143.8338  143.3021  164.2716 C.ar    1  UNL1       -0.0026
@<TRIPOS>UNITY_ATOM_ATTR
20 1
charge 1
21 1
charge -1
@<TRIPOS>BOND
     1    16    17    1
     2    17    18   ar
     3    18    19   ar
     4    19    20   ar
     5    20    21    1
     6    20    22   ar
     7    22    23    1
     8    22    24   ar
     9    24     7    1
    10     7     8    2
    11     7     9   am
    12     9    10    1
    13    10    11    1
    14    11    12    1
    15    12    13    1
    16    12     1    1
    17     1     2    1
    18     2     3    1
    19     3     4    1
    20     4    25    1
    21    25    32    1
    22    32    33    1
    23    33    34   ar
    24    34    35   ar
    25    35    36   ar
    26    36    37   ar
    27    37    38   ar
    28    25    26    1
    29    26    27   ar
    30    27    28   ar
    31    28    29   ar
    32    29    30   ar
    33    30    31   ar
    34     4     5    1
    35     5     6    1
    36    12    14    1
    37    14    15    1
    38    24    17   ar
    39    15     9    1
    40     6     1    1
    41    38    33   ar
    42    31    26   ar
@<TRIPOS>MOLECULE
*****
 38 42 0 0 0
SMALL
GASTEIGER

@<TRIPOS>ATOM
      1 N         140.3113  143.5638  161.4434 N.3     1  UNL1       -0.2750
      2 C         141.4816  144.2996  160.8612 C.3     1  UNL1        0.0737
      3 C         141.6158  144.4380  159.3736 C.3     1  UNL1        0.0371
      4 C         140.5797  143.8406  158.4683 C.3     1  UNL1        0.0759
      5 C         139.4094  143.1048  159.0505 C.3     1  UNL1        0.0371
      6 C         139.2752  142.9664  160.5380 C.3     1  UNL1        0.0737
      7 C         141.4277  140.6722  166.2635 C.2     1  UNL1        0.2542
      8 O         142.2472  139.4528  165.9613 O.2     1  UNL1       -0.2697
      9 N         141.0108  141.5899  165.1527 N.am    1  UNL1       -0.2758
     10 C         141.4134  141.2882  163.7395 C.3     1  UNL1        0.0951
     11 C         140.9966  142.2059  162.6287 C.3     1  UNL1        0.0362
     12 C         140.1771  143.4254  162.9309 C.3     1  UNL1        0.0487
     13 C         139.4043  144.6929  162.7166 C.3     1  UNL1        0.0161
     14 C         139.7745  143.7272  164.3440 C.3     1  UNL1        0.0362
     15 C         140.1914  142.8094  165.4549 C.3     1  UNL1        0.0951
     16 C         138.8783  139.5431  167.3706 C.3     1  UNL1        0.0316
     17 C         139.7504  140.4094  168.2302 C.ar    1  UNL1       -0.0058
     18 C         139.3479  140.7112  169.6433 C.ar    1  UNL1        0.0730
     19 C         140.2200  141.5775  170.5028 C.ar    1  UNL1        0.3010
     20 N         141.4946  142.1421  169.9493 N.ar    1  UNL1       -0.1606
     21 O         142.3668  143.0084  170.8089 O.co2   1  UNL1       -0.6190
     22 C         141.8972  141.8403  168.5362 C.ar    1  UNL1        0.2180
     23 C         143.1719  142.4049  167.9827 C.3     1  UNL1        0.1093
     24 C         141.0251  140.9740  167.6767 C.ar    1  UNL1        0.1099
     25 N         140.7139  143.9791  156.9807 N.pl3   1  UNL1       -0.3051
     26 C         140.3400  145.2680  156.3107 C.ar    1  UNL1        0.0480
     27 C         140.7828  145.5375  154.9031 C.ar    1  UNL1        0.0145
     28 C         140.4090  146.8265  154.2331 C.ar    1  UNL1        0.0013
     29 C         139.5924  147.8458  154.9706 C.ar    1  UNL1        0.0001
     30 C         139.1496  147.5763  156.3782 C.ar    1  UNL1        0.0013
     31 C         139.5234  146.2874  157.0482 C.ar    1  UNL1        0.0145
     32 C         141.2219  142.8287  156.1632 C.3     1  UNL1        0.1177
     33 C         142.5940  142.2775  156.4152 C.ar    1  UNL1       -0.0024
     34 C         142.7795  141.1340  157.3681 C.ar    1  UNL1       -0.0026
     35 C         144.1516  140.5828  157.6201 C.ar    1  UNL1       -0.0003
     36 C         145.3382  141.1751  156.9192 C.ar    1  UNL1       -0.0000
     37 C         145.1527  142.3186  155.9663 C.ar    1  UNL1       -0.0003
     38 C         143.7806  142.8698  155.7143 C.ar    1  UNL1       -0.0026
@<TRIPOS>UNITY_ATOM_ATTR
20 1
charge 1
21 1
charge -1
@<TRIPOS>BOND
     1    16    17    1
     2    17    18   ar
     3    18    19   ar
     4    19    20   ar
     5    20    21    1
     6    20    22   ar
     7    22    23    1
     8    22    24   ar
     9    24     7    1
    10     7     8    2
    11     7     9   am
    12     9    10    1
    13    10    11    1
    14    11    12    1
    15    12    13    1
    16    12     1    1
    17     1     2    1
    18     2     3    1
    19     3     4    1
    20     4    25    1
    21    25    32    1
    22    32    33    1
    23    33    34   ar
    24    34    35   ar
    25    35    36   ar
    26    36    37   ar
    27    37    38   ar
    28    25    26    1
    29    26    27   ar
    30    27    28   ar
    31    28    29   ar
    32    29    30   ar
    33    30    31   ar
    34     4     5    1
    35     5     6    1
    36    12    14    1
    37    14    15    1
    38    24    17   ar
    39    15     9    1
    40     6     1    1
    41    38    33   ar
    42    31    26   ar
@<TRIPOS>MOLECULE
*****
 38 42 0 0 0
SMALL
GASTEIGER

@<TRIPOS>ATOM
      1 N         140.0472  143.1891  161.8254 N.3     1  UNL1       -0.2750
      2 C         138.8539  142.7194  161.0474 C.3     1  UNL1        0.0737
      3 C         138.8819  142.7369  159.5478 C.3     1  UNL1        0.0371
      4 C         140.1034  143.2242  158.8262 C.3     1  UNL1        0.0759
      5 C         141.2967  143.6939  159.6042 C.3     1  UNL1        0.0371
      6 C         141.2686  143.6763  161.1038 C.3     1  UNL1        0.0737
      7 C         141.4603  140.6614  166.7706 C.2     1  UNL1        0.2542
      8 O         142.2341  139.4031  166.5098 O.2     1  UNL1       -0.2697
      9 N         140.9799  141.4981  165.6221 N.am    1  UNL1       -0.2758
     10 C         141.2733  141.0765  164.2127 C.3     1  UNL1        0.0951
     11 C         140.7929  141.9133  163.0642 C.3     1  UNL1        0.0362
     12 C         140.0191  143.1715  163.3250 C.3     1  UNL1        0.0487
     13 C         139.2551  144.4359  163.0650 C.3     1  UNL1        0.0161
     14 C         139.7257  143.5931  164.7343 C.3     1  UNL1        0.0362
     15 C         140.2061  142.7563  165.8829 C.3     1  UNL1        0.0951
     16 C         138.9534  139.7237  168.1257 C.3     1  UNL1        0.0316
     17 C         139.9135  140.6141  168.8575 C.ar    1  UNL1       -0.0058
     18 C         139.6202  141.0356  170.2668 C.ar    1  UNL1        0.0730
     19 C         140.5803  141.9260  170.9986 C.ar    1  UNL1        0.3010
     20 N         141.8337  142.3948  170.3211 N.ar    1  UNL1       -0.1606
     21 O         142.7938  143.2851  171.0529 O.co2   1  UNL1       -0.6190
     22 C         142.1270  141.9732  168.9118 C.ar    1  UNL1        0.2180
     23 C         143.3805  142.4420  168.2342 C.3     1  UNL1        0.1093
     24 C         141.1669  141.0829  168.1800 C.ar    1  UNL1        0.1099
     25 N         140.1314  143.2417  157.3265 N.pl3   1  UNL1       -0.3051
     26 C         139.5803  144.4202  156.5798 C.ar    1  UNL1        0.0480
     27 C         140.2271  145.7663  156.7204 C.ar    1  UNL1        0.0145
     28 C         139.6760  146.9448  155.9738 C.ar    1  UNL1        0.0013
     29 C         138.4782  146.7772  155.0865 C.ar    1  UNL1        0.0001
     30 C         137.8315  145.4311  154.9459 C.ar    1  UNL1        0.0013
     31 C         138.3826  144.2526  155.6926 C.ar    1  UNL1        0.0145
     32 C         140.7105  142.0809  156.5735 C.3     1  UNL1        0.1177
     33 C         141.3393  140.9415  157.3194 C.ar    1  UNL1       -0.0024
     34 C         142.8082  140.9632  157.6225 C.ar    1  UNL1       -0.0026
     35 C         143.4370  139.8238  158.3684 C.ar    1  UNL1       -0.0003
     36 C         142.5969  138.6627  158.8112 C.ar    1  UNL1       -0.0000
     37 C         141.1280  138.6410  158.5082 C.ar    1  UNL1       -0.0003
     38 C         140.4992  139.7804  157.7623 C.ar    1  UNL1       -0.0026
@<TRIPOS>UNITY_ATOM_ATTR
20 1
charge 1
21 1
charge -1
@<TRIPOS>BOND
     1    16    17    1
     2    17    18   ar
     3    18    19   ar
     4    19    20   ar
     5    20    21    1
     6    20    22   ar
     7    22    23    1
     8    22    24   ar
     9    24     7    1
    10     7     8    2
    11     7     9   am
    12     9    10    1
    13    10    11    1
    14    11    12    1
    15    12    13    1
    16    12     1    1
    17     1     2    1
    18     2     3    1
    19     3     4    1
    20     4    25    1
    21    25    32    1
    22    32    33    1
    23    33    34   ar
    24    34    35   ar
    25    35    36   ar
    26    36    37   ar
    27    37    38   ar
    28    25    26    1
    29    26    27   ar
    30    27    28   ar
    31    28    29   ar
    32    29    30   ar
    33    30    31   ar
    34     4     5    1
    35     5     6    1
    36    12    14    1
    37    14    15    1
    38    24    17   ar
    39    15     9    1
    40     6     1    1
    41    38    33   ar
    42    31    26   ar
@<TRIPOS>MOLECULE
*****
 38 42 0 0 0
SMALL
GASTEIGER

@<TRIPOS>ATOM
      1 N         138.8146  142.0908  161.2172 N.3     1  UNL1       -0.2750
      2 C         138.2131  140.8925  160.5449 C.3     1  UNL1        0.0737
      3 C         138.1690  140.8160  159.0475 C.3     1  UNL1        0.0371
      4 C         138.7264  141.9379  158.2224 C.3     1  UNL1        0.0759
      5 C         139.3279  143.1362  158.8947 C.3     1  UNL1        0.0371
      6 C         139.3721  143.2127  160.3921 C.3     1  UNL1        0.0737
      7 C         140.9764  140.2695  166.2023 C.2     1  UNL1        0.2542
      8 O         141.9983  139.1972  165.9660 O.2     1  UNL1       -0.2697
      9 N         140.2705  140.9021  165.0398 N.am    1  UNL1       -0.2758
     10 C         140.5866  140.4625  163.6408 C.3     1  UNL1        0.0951
     11 C         139.8807  141.0951  162.4783 C.3     1  UNL1        0.0362
     12 C         138.8588  142.1674  162.7146 C.3     1  UNL1        0.0487
     13 C         137.8216  143.2131  162.4309 C.3     1  UNL1        0.0161
     14 C         138.5427  142.6071  164.1134 C.3     1  UNL1        0.0362
     15 C         139.2486  141.9745  165.2760 C.3     1  UNL1        0.0951
     16 C         138.5552  139.1866  167.6042 C.3     1  UNL1        0.0316
     17 C         139.4498  140.1678  168.3021 C.ar    1  UNL1       -0.0058
     18 C         139.1338  140.6074  169.7009 C.ar    1  UNL1        0.0730
     19 C         140.0283  141.5886  170.3988 C.ar    1  UNL1        0.3010
     20 N         141.2389  142.1301  169.6979 N.ar    1  UNL1       -0.1606
     21 O         142.1334  143.1112  170.3959 O.co2   1  UNL1       -0.6190
     22 C         141.5549  141.6904  168.2991 C.ar    1  UNL1        0.2180
     23 C         142.7655  142.2319  167.5981 C.3     1  UNL1        0.1093
     24 C         140.6603  140.7092  167.6012 C.ar    1  UNL1        0.1099
     25 N         138.6822  141.8613  156.7251 N.pl3   1  UNL1       -0.3051
     26 C         137.6158  141.0536  156.0465 C.ar    1  UNL1        0.0480
     27 C         137.9801  139.7990  155.3095 C.ar    1  UNL1        0.0145
     28 C         136.9137  138.9913  154.6310 C.ar    1  UNL1        0.0013
     29 C         135.4831  139.4382  154.6894 C.ar    1  UNL1        0.0001
     30 C         135.1188  140.6928  155.4263 C.ar    1  UNL1        0.0013
     31 C         136.1852  141.5006  156.1049 C.ar    1  UNL1        0.0145
     32 C         139.7044  142.5924  155.9062 C.3     1  UNL1        0.1177
     33 C         139.5638  144.0676  155.6737 C.ar    1  UNL1       -0.0024
     34 C         138.2438  144.6369  155.2453 C.ar    1  UNL1       -0.0026
     35 C         138.1031  146.1120  155.0128 C.ar    1  UNL1       -0.0003
     36 C         139.2825  147.0180  155.2087 C.ar    1  UNL1       -0.0000
     37 C         140.6025  146.4487  155.6370 C.ar    1  UNL1       -0.0003
     38 C         140.7432  144.9736  155.8695 C.ar    1  UNL1       -0.0026
@<TRIPOS>UNITY_ATOM_ATTR
20 1
charge 1
21 1
charge -1
@<TRIPOS>BOND
     1    16    17    1
     2    17    18   ar
     3    18    19   ar
     4    19    20   ar
     5    20    21    1
     6    20    22   ar
     7    22    23    1
     8    22    24   ar
     9    24     7    1
    10     7     8    2
    11     7     9   am
    12     9    10    1
    13    10    11    1
    14    11    12    1
    15    12    13    1
    16    12     1    1
    17     1     2    1
    18     2     3    1
    19     3     4    1
    20     4    25    1
    21    25    32    1
    22    32    33    1
    23    33    34   ar
    24    34    35   ar
    25    35    36   ar
    26    36    37   ar
    27    37    38   ar
    28    25    26    1
    29    26    27   ar
    30    27    28   ar
    31    28    29   ar
    32    29    30   ar
    33    30    31   ar
    34     4     5    1
    35     5     6    1
    36    12    14    1
    37    14    15    1
    38    24    17   ar
    39    15     9    1
    40     6     1    1
    41    38    33   ar
    42    31    26   ar
@<TRIPOS>MOLECULE
*****
 38 42 0 0 0
SMALL
GASTEIGER

@<TRIPOS>ATOM
      1 N         142.6934  142.0405  161.4997 N.3     1  UNL1       -0.2750
      2 C         143.3084  141.3845  162.7003 C.3     1  UNL1        0.0737
      3 C         142.4934  141.1790  163.9426 C.3     1  UNL1        0.0371
      4 C         141.0632  141.6295  163.9844 C.3     1  UNL1        0.0759
      5 C         140.4481  142.2854  162.7839 C.3     1  UNL1        0.0371
      6 C         141.2632  142.4910  161.5415 C.3     1  UNL1        0.0737
      7 C         143.2205  141.6445  155.8071 C.2     1  UNL1        0.2542
      8 O         141.9754  141.0605  155.2082 O.2     1  UNL1       -0.2697
      9 N         143.3165  141.8450  157.2905 N.am    1  UNL1       -0.2758
     10 C         142.1673  141.4615  158.1751 C.3     1  UNL1        0.0951
     11 C         142.2633  141.6620  159.6585 C.3     1  UNL1        0.0362
     12 C         143.5084  142.2460  160.2574 C.3     1  UNL1        0.0487
     13 C         144.4704  142.7586  161.2877 C.3     1  UNL1        0.0161
     14 C         144.6575  142.6295  159.3729 C.3     1  UNL1        0.0362
     15 C         144.5616  142.4290  157.8894 C.3     1  UNL1        0.0951
     16 C         145.4261  139.6812  155.2773 C.3     1  UNL1        0.0316
     17 C         145.4724  141.0464  154.6576 C.ar    1  UNL1       -0.0058
     18 C         146.6215  141.4300  153.7731 C.ar    1  UNL1        0.0730
     19 C         146.6678  142.7952  153.1534 C.ar    1  UNL1        0.3010
     20 N         145.5650  143.7769  153.4182 N.ar    1  UNL1       -0.1606
     21 O         145.6113  145.1421  152.7985 O.co2   1  UNL1       -0.6190
     22 C         144.4159  143.3933  154.3028 C.ar    1  UNL1        0.2180
     23 C         143.3131  144.3750  154.5677 C.3     1  UNL1        0.1093
     24 C         144.3696  142.0281  154.9225 C.ar    1  UNL1        0.1099
     25 N         140.2482  141.4240  165.2268 N.pl3   1  UNL1       -0.3051
     26 C         139.5992  140.0969  165.4870 C.ar    1  UNL1        0.0480
     27 C         139.9505  138.9110  164.6383 C.ar    1  UNL1        0.0145
     28 C         139.3016  137.5839  164.8986 C.ar    1  UNL1        0.0013
     29 C         138.3014  137.4427  166.0075 C.ar    1  UNL1        0.0001
     30 C         137.9502  138.6286  166.8562 C.ar    1  UNL1        0.0013
     31 C         138.5991  139.9557  166.5959 C.ar    1  UNL1        0.0145
     32 C         140.0820  142.5455  166.2089 C.3     1  UNL1        0.1177
     33 C         140.9544  142.6109  167.4274 C.ar    1  UNL1       -0.0024
     34 C         140.4058  143.1520  168.7143 C.ar    1  UNL1       -0.0026
     35 C         141.2782  143.2174  169.9328 C.ar    1  UNL1       -0.0003
     36 C         142.6991  142.7416  169.8644 C.ar    1  UNL1       -0.0000
     37 C         143.2476  142.2004  168.5775 C.ar    1  UNL1       -0.0003
     38 C         142.3753  142.1350  167.3590 C.ar    1  UNL1       -0.0026
@<TRIPOS>UNITY_ATOM_ATTR
20 1
charge 1
21 1
charge -1
@<TRIPOS>BOND
     1    16    17    1
     2    17    18   ar
     3    18    19   ar
     4    19    20   ar
     5    20    21    1
     6    20    22   ar
     7    22    23    1
     8    22    24   ar
     9    24     7    1
    10     7     8    2
    11     7     9   am
    12     9    10    1
    13    10    11    1
    14    11    12    1
    15    12    13    1
    16    12     1    1
    17     1     2    1
    18     2     3    1
    19     3     4    1
    20     4    25    1
    21    25    32    1
    22    32    33    1
    23    33    34   ar
    24    34    35   ar
    25    35    36   ar
    26    36    37   ar
    27    37    38   ar
    28    25    26    1
    29    26    27   ar
    30    27    28   ar
    31    28    29   ar
    32    29    30   ar
    33    30    31   ar
    34     4     5    1
    35     5     6    1
    36    12    14    1
    37    14    15    1
    38    24    17   ar
    39    15     9    1
    40     6     1    1
    41    38    33   ar
    42    31    26   ar
