@<TRIPOS>MOLECULE
*****
 42 47 0 0 0
SMALL
GASTEIGER

@<TRIPOS>ATOM
      1 C         142.0651  144.6141  163.2684 C.3     1  UNL1        0.0570
      2 C         142.8841  144.0254  162.1582 C.3     1  UNL1        0.0331
      3 C         143.6552  142.7590  162.3852 C.3     1  UNL1        0.0735
      4 N         143.6074  142.0813  163.7225 N.3     1  UNL1       -0.2710
      5 C         142.7883  142.6700  164.8328 C.3     1  UNL1        0.0735
      6 C         142.0172  143.9364  164.6057 C.3     1  UNL1        0.0331
      7 N         141.2939  145.8805  163.0413 N.3     1  UNL1       -0.2934
      8 H         141.1944  146.3317  163.9506 H       1  UNL1        0.1236
      9 C         139.9239  145.8255  162.4329 C.3     1  UNL1        0.1152
     10 O         138.3813  139.5792  158.0337 O.2     1  UNL1       -0.2707
     11 C         138.2096  140.3402  159.3148 C.2     1  UNL1        0.2718
     12 C         137.3520  139.7803  160.4107 C.3     1  UNL1        0.2898
     13 O         137.1803  140.5413  161.6918 O.3     1  UNL1       -0.4628
     14 C         137.8662  141.8624  161.8771 C.ar    1  UNL1        0.1708
     15 C         137.6945  142.6234  163.1582 C.ar    1  UNL1        0.0411
     16 C         138.3803  143.9445  163.3435 C.ar    1  UNL1        0.0193
     17 C         139.2380  144.5045  162.2476 C.ar    1  UNL1        0.0765
     18 N         139.4097  143.7434  160.9665 N.ar    1  UNL1       -0.2304
     19 C         138.7238  142.4223  160.7812 C.ar    1  UNL1        0.1682
     20 N         138.8955  141.6613  159.5001 N.am    1  UNL1       -0.2639
     21 H         139.4584  142.0288  158.7809 H       1  UNL1        0.1565
     22 C         144.3785  140.8149  163.9496 C.3     1  UNL1        0.0970
     23 C         143.6757  139.5887  164.4520 C.3     1  UNL1        0.1264
     24 N         142.5005  139.0369  163.7005 N.ar    1  UNL1       -0.2926
     25 C         142.6977  138.4225  162.3464 C.ar    1  UNL1        0.2611
     26 O         144.0700  138.3600  161.7438 O.2     1  UNL1       -0.2670
     27 C         141.5227  137.8707  161.5949 C.ar    1  UNL1        0.0623
     28 C         140.1504  137.9332  162.1975 C.ar    1  UNL1        0.0255
     29 C         139.9533  138.5476  163.5517 C.ar    1  UNL1        0.0975
     30 N         138.5811  138.6102  164.1543 N.ar    1  UNL1       -0.2392
     31 C         138.3840  139.2246  165.5084 C.ar    1  UNL1        0.1357
     32 C         139.5590  139.7764  166.2599 C.ar    1  UNL1        0.1597
     33 C         140.9312  139.7138  165.6573 C.ar    1  UNL1        0.0573
     34 C         141.1284  139.0995  164.3032 C.ar    1  UNL1        0.0832
     35 O         139.3618  140.3908  167.6140 O.3     1  UNL1       -0.4673
     36 C         140.2398  139.9802  168.7589 C.3     1  UNL1        0.2527
     37 C         141.1608  140.9796  169.3937 C.ar    1  UNL1        0.1242
     38 C         142.3360  141.5093  168.6268 C.ar    1  UNL1        0.0219
     39 C         143.2570  142.5087  169.2616 C.ar    1  UNL1        0.0239
     40 C         143.0027  142.9785  170.6633 C.ar    1  UNL1        0.1222
     41 N         141.8274  142.4488  171.4302 N.ar    1  UNL1       -0.1466
     42 N         140.9064  141.4493  170.7954 N.ar    1  UNL1       -0.1486
@<TRIPOS>BOND
     1    10    11    2
     2    11    12    1
     3    12    13    1
     4    13    14    1
     5    14    15   ar
     6    15    16   ar
     7    16    17   ar
     8    17     9    1
     9     9     7    1
    10     7     1    1
    11     1     2    1
    12     2     3    1
    13     3     4    1
    14     4    22    1
    15    22    23    1
    16    23    24    1
    17    24    25   ar
    18    25    26    2
    19    25    27   ar
    20    27    28   ar
    21    28    29   ar
    22    29    30   ar
    23    30    31   ar
    24    31    32   ar
    25    32    35    1
    26    35    36    1
    27    36    37    1
    28    37    38   ar
    29    38    39   ar
    30    39    40   ar
    31    40    41   ar
    32    41    42   ar
    33    32    33   ar
    34    33    34   ar
    35     4     5    1
    36     5     6    1
    37    17    18   ar
    38    18    19   ar
    39    19    20    1
    40    20    11   am
    41    19    14   ar
    42     6     1    1
    43    34    24   ar
    44    34    29   ar
    45    42    37   ar
    46     7     8    1
    47    20    21    1
@<TRIPOS>MOLECULE
*****
 42 47 0 0 0
SMALL
GASTEIGER

@<TRIPOS>ATOM
      1 C         138.1369  143.1042  163.1482 C.3     1  UNL1        0.0570
      2 C         137.6293  141.7311  163.4751 C.3     1  UNL1        0.0331
      3 C         137.6497  140.6554  162.4298 C.3     1  UNL1        0.0735
      4 N         138.1778  140.9529  161.0577 N.3     1  UNL1       -0.2710
      5 C         138.6855  142.3260  160.7309 C.3     1  UNL1        0.0735
      6 C         138.6651  143.4017  161.7761 C.3     1  UNL1        0.0331
      7 N         138.1165  144.1798  164.1934 N.3     1  UNL1       -0.2934
      8 H         137.9669  145.0625  163.7047 H       1  UNL1        0.1236
      9 C         139.3028  144.3770  165.0901 C.3     1  UNL1        0.1152
     10 O         145.2764  139.4336  164.2974 O.2     1  UNL1       -0.2707
     11 C         144.6654  140.7821  164.0562 C.2     1  UNL1        0.2718
     12 C         145.4345  141.8313  163.3095 C.3     1  UNL1        0.2898
     13 O         144.8235  143.1798  163.0682 O.3     1  UNL1       -0.4628
     14 C         143.4433  143.4791  163.5737 C.ar    1  UNL1        0.1708
     15 C         142.8323  144.8276  163.3325 C.ar    1  UNL1        0.0411
     16 C         141.4522  145.1269  163.8379 C.ar    1  UNL1        0.0193
     17 C         140.6829  144.0777  164.5847 C.ar    1  UNL1        0.0765
     18 N         141.2940  142.7292  164.8259 N.ar    1  UNL1       -0.2304
     19 C         142.6742  142.4299  164.3204 C.ar    1  UNL1        0.1682
     20 N         143.2852  141.0814  164.5616 N.am    1  UNL1       -0.2639
     21 H         142.7804  140.3928  165.0517 H       1  UNL1        0.1565
     22 C         138.1983  139.8772  160.0125 C.3     1  UNL1        0.0970
     23 C         138.7827  138.5330  160.3310 C.3     1  UNL1        0.1264
     24 N         140.2259  138.4164  160.7230 N.ar    1  UNL1       -0.2926
     25 C         141.2957  138.4808  159.6734 C.ar    1  UNL1        0.2611
     26 O         140.9222  138.6618  158.2320 O.2     1  UNL1       -0.2670
     27 C         142.7388  138.3642  160.0654 C.ar    1  UNL1        0.0623
     28 C         143.1123  138.1832  161.5068 C.ar    1  UNL1        0.0255
     29 C         142.0426  138.1188  162.5564 C.ar    1  UNL1        0.0975
     30 N         142.4160  137.9378  163.9978 N.ar    1  UNL1       -0.2392
     31 C         141.3462  137.8734  165.0473 C.ar    1  UNL1        0.1357
     32 C         139.9031  137.9900  164.6554 C.ar    1  UNL1        0.1597
     33 C         139.5296  138.1710  163.2139 C.ar    1  UNL1        0.0573
     34 C         140.5993  138.2354  162.1644 C.ar    1  UNL1        0.0832
     35 O         138.8333  137.9256  165.7049 O.3     1  UNL1       -0.4673
     36 C         138.3739  139.1810  166.3856 C.3     1  UNL1        0.2527
     37 C         138.9845  139.5919  167.6926 C.ar    1  UNL1        0.1242
     38 C         140.3858  140.1257  167.7309 C.ar    1  UNL1        0.0219
     39 C         140.9964  140.5366  169.0380 C.ar    1  UNL1        0.0239
     40 C         140.2057  140.4137  170.3067 C.ar    1  UNL1        0.1222
     41 N         138.8043  139.8799  170.2684 N.ar    1  UNL1       -0.1466
     42 N         138.1938  139.4690  168.9614 N.ar    1  UNL1       -0.1486
@<TRIPOS>BOND
     1    10    11    2
     2    11    12    1
     3    12    13    1
     4    13    14    1
     5    14    15   ar
     6    15    16   ar
     7    16    17   ar
     8    17     9    1
     9     9     7    1
    10     7     1    1
    11     1     2    1
    12     2     3    1
    13     3     4    1
    14     4    22    1
    15    22    23    1
    16    23    24    1
    17    24    25   ar
    18    25    26    2
    19    25    27   ar
    20    27    28   ar
    21    28    29   ar
    22    29    30   ar
    23    30    31   ar
    24    31    32   ar
    25    32    35    1
    26    35    36    1
    27    36    37    1
    28    37    38   ar
    29    38    39   ar
    30    39    40   ar
    31    40    41   ar
    32    41    42   ar
    33    32    33   ar
    34    33    34   ar
    35     4     5    1
    36     5     6    1
    37    17    18   ar
    38    18    19   ar
    39    19    20    1
    40    20    11   am
    41    19    14   ar
    42     6     1    1
    43    34    24   ar
    44    34    29   ar
    45    42    37   ar
    46     7     8    1
    47    20    21    1
@<TRIPOS>MOLECULE
*****
 42 47 0 0 0
SMALL
GASTEIGER

@<TRIPOS>ATOM
      1 C         144.1634  139.6259  164.7411 C.3     1  UNL1        0.0570
      2 C         143.5491  138.9142  165.9098 C.3     1  UNL1        0.0331
      3 C         142.9231  139.7013  167.0227 C.3     1  UNL1        0.0735
      4 N         142.9114  141.2002  166.9669 N.3     1  UNL1       -0.2710
      5 C         143.5258  141.9120  165.7981 C.3     1  UNL1        0.0735
      6 C         144.1518  141.1249  164.6853 C.3     1  UNL1        0.0331
      7 N         144.7894  138.8388  163.6282 N.3     1  UNL1       -0.2934
      8 H         145.7907  139.0311  163.6586 H       1  UNL1        0.1236
      9 C         144.3485  139.0614  162.2118 C.3     1  UNL1        0.1152
     10 O         138.2419  142.8534  159.1983 O.2     1  UNL1       -0.2707
     11 C         138.8153  141.6420  159.8720 C.2     1  UNL1        0.2718
     12 C         137.9267  140.4833  160.2148 C.3     1  UNL1        0.2898
     13 O         138.5001  139.2719  160.8885 O.3     1  UNL1       -0.4628
     14 C         139.9621  139.2193  161.2193 C.ar    1  UNL1        0.1708
     15 C         140.5355  138.0079  161.8930 C.ar    1  UNL1        0.0411
     16 C         141.9976  137.9553  162.2238 C.ar    1  UNL1        0.0193
     17 C         142.8864  139.1140  161.8810 C.ar    1  UNL1        0.0765
     18 N         142.3130  140.3254  161.2073 N.ar    1  UNL1       -0.2304
     19 C         140.8508  140.3780  160.8765 C.ar    1  UNL1        0.1682
     20 N         140.2774  141.5893  160.2028 N.am    1  UNL1       -0.2639
     21 H         140.8607  142.3499  159.9778 H       1  UNL1        0.1565
     22 C         142.2854  141.9873  168.0798 C.3     1  UNL1        0.0970
     23 C         140.8080  142.2462  168.0764 C.3     1  UNL1        0.1264
     24 N         139.9079  141.4433  167.1846 N.ar    1  UNL1       -0.2926
     25 C         139.4199  140.0962  167.6284 C.ar    1  UNL1        0.2611
     26 O         139.8320  139.5519  168.9641 O.2     1  UNL1       -0.2670
     27 C         138.5198  139.2933  166.7366 C.ar    1  UNL1        0.0623
     28 C         138.1077  139.8376  165.4010 C.ar    1  UNL1        0.0255
     29 C         138.5957  141.1848  164.9571 C.ar    1  UNL1        0.0975
     30 N         138.1837  141.7291  163.6215 N.ar    1  UNL1       -0.2392
     31 C         138.6717  143.0763  163.1777 C.ar    1  UNL1        0.1357
     32 C         139.5717  143.8791  164.0694 C.ar    1  UNL1        0.1597
     33 C         139.9838  143.3348  165.4051 C.ar    1  UNL1        0.0573
     34 C         139.4958  141.9877  165.8490 C.ar    1  UNL1        0.0832
     35 O         140.0597  145.2263  163.6256 O.3     1  UNL1       -0.4673
     36 C         140.6377  145.3996  162.2523 C.3     1  UNL1        0.2527
     37 C         141.8914  144.6708  161.8688 C.ar    1  UNL1        0.1242
     38 C         143.0095  144.5296  162.8587 C.ar    1  UNL1        0.0219
     39 C         144.2632  143.8008  162.4753 C.ar    1  UNL1        0.0239
     40 C         144.3989  143.2132  161.1019 C.ar    1  UNL1        0.1222
     41 N         143.2808  143.3543  160.1119 N.ar    1  UNL1       -0.1466
     42 N         142.0271  144.0831  160.4953 N.ar    1  UNL1       -0.1486
@<TRIPOS>BOND
     1    10    11    2
     2    11    12    1
     3    12    13    1
     4    13    14    1
     5    14    15   ar
     6    15    16   ar
     7    16    17   ar
     8    17     9    1
     9     9     7    1
    10     7     1    1
    11     1     2    1
    12     2     3    1
    13     3     4    1
    14     4    22    1
    15    22    23    1
    16    23    24    1
    17    24    25   ar
    18    25    26    2
    19    25    27   ar
    20    27    28   ar
    21    28    29   ar
    22    29    30   ar
    23    30    31   ar
    24    31    32   ar
    25    32    35    1
    26    35    36    1
    27    36    37    1
    28    37    38   ar
    29    38    39   ar
    30    39    40   ar
    31    40    41   ar
    32    41    42   ar
    33    32    33   ar
    34    33    34   ar
    35     4     5    1
    36     5     6    1
    37    17    18   ar
    38    18    19   ar
    39    19    20    1
    40    20    11   am
    41    19    14   ar
    42     6     1    1
    43    34    24   ar
    44    34    29   ar
    45    42    37   ar
    46     7     8    1
    47    20    21    1
@<TRIPOS>MOLECULE
*****
 42 47 0 0 0
SMALL
GASTEIGER

@<TRIPOS>ATOM
      1 C         144.9886  141.0270  163.1749 C.3     1  UNL1        0.0570
      2 C         144.5557  139.7557  163.8429 C.3     1  UNL1        0.0331
      3 C         143.7122  138.7655  163.0958 C.3     1  UNL1        0.0735
      4 N         143.3017  139.0466  161.6808 N.3     1  UNL1       -0.2710
      5 C         143.7346  140.3181  161.0128 C.3     1  UNL1        0.0735
      6 C         144.5781  141.3082  161.7598 C.3     1  UNL1        0.0331
      7 N         145.8321  142.0172  163.9219 N.3     1  UNL1       -0.2934
      8 H         146.4445  141.4791  164.5349 H       1  UNL1        0.1236
      9 C         145.1803  143.0662  164.7734 C.3     1  UNL1        0.1152
     10 O         139.2581  146.5512  161.0949 O.2     1  UNL1       -0.2707
     11 C         139.7621  145.6565  162.1882 C.2     1  UNL1        0.2718
     12 C         138.7961  145.0287  163.1488 C.3     1  UNL1        0.2898
     13 O         139.3001  144.1340  164.2421 O.3     1  UNL1       -0.4628
     14 C         140.7701  143.8671  164.3750 C.ar    1  UNL1        0.1708
     15 C         141.2742  142.9723  165.4683 C.ar    1  UNL1        0.0411
     16 C         142.7442  142.7054  165.6012 C.ar    1  UNL1        0.0193
     17 C         143.7103  143.3331  164.6406 C.ar    1  UNL1        0.0765
     18 N         143.2063  144.2279  163.5472 N.ar    1  UNL1       -0.2304
     19 C         141.7362  144.4948  163.4144 C.ar    1  UNL1        0.1682
     20 N         141.2321  145.3895  162.3211 N.am    1  UNL1       -0.2639
     21 H         141.8662  145.8015  161.6906 H       1  UNL1        0.1565
     22 C         142.4582  138.0565  160.9337 C.3     1  UNL1        0.0970
     23 C         141.1088  137.6705  161.4630 C.3     1  UNL1        0.1264
     24 N         139.9597  138.6289  161.3578 N.ar    1  UNL1       -0.2926
     25 C         139.3434  138.9170  160.0209 C.ar    1  UNL1        0.2611
     26 O         139.8762  138.2467  158.7893 O.2     1  UNL1       -0.2670
     27 C         138.1943  139.8753  159.9157 C.ar    1  UNL1        0.0623
     28 C         137.6614  140.5456  161.1473 C.ar    1  UNL1        0.0255
     29 C         138.2777  140.2575  162.4842 C.ar    1  UNL1        0.0975
     30 N         137.7449  140.9277  163.7158 N.ar    1  UNL1       -0.2392
     31 C         138.3612  140.6396  165.0526 C.ar    1  UNL1        0.1357
     32 C         139.5103  139.6813  165.1579 C.ar    1  UNL1        0.1597
     33 C         140.0432  139.0110  163.9262 C.ar    1  UNL1        0.0573
     34 C         139.4269  139.2991  162.5894 C.ar    1  UNL1        0.0832
     35 O         140.1266  139.3932  166.4947 O.3     1  UNL1       -0.4673
     36 C         139.7264  140.1997  167.6946 C.3     1  UNL1        0.2527
     37 C         140.7499  141.0202  168.4220 C.ar    1  UNL1        0.1242
     38 C         140.3495  142.3074  169.0799 C.ar    1  UNL1        0.0219
     39 C         141.3730  143.1280  169.8073 C.ar    1  UNL1        0.0239
     40 C         142.7968  142.6613  169.8770 C.ar    1  UNL1        0.1222
     41 N         143.1972  141.3740  169.2191 N.ar    1  UNL1       -0.1466
     42 N         142.1738  140.5535  168.4917 N.ar    1  UNL1       -0.1486
@<TRIPOS>BOND
     1    10    11    2
     2    11    12    1
     3    12    13    1
     4    13    14    1
     5    14    15   ar
     6    15    16   ar
     7    16    17   ar
     8    17     9    1
     9     9     7    1
    10     7     1    1
    11     1     2    1
    12     2     3    1
    13     3     4    1
    14     4    22    1
    15    22    23    1
    16    23    24    1
    17    24    25   ar
    18    25    26    2
    19    25    27   ar
    20    27    28   ar
    21    28    29   ar
    22    29    30   ar
    23    30    31   ar
    24    31    32   ar
    25    32    35    1
    26    35    36    1
    27    36    37    1
    28    37    38   ar
    29    38    39   ar
    30    39    40   ar
    31    40    41   ar
    32    41    42   ar
    33    32    33   ar
    34    33    34   ar
    35     4     5    1
    36     5     6    1
    37    17    18   ar
    38    18    19   ar
    39    19    20    1
    40    20    11   am
    41    19    14   ar
    42     6     1    1
    43    34    24   ar
    44    34    29   ar
    45    42    37   ar
    46     7     8    1
    47    20    21    1
@<TRIPOS>MOLECULE
*****
 42 47 0 0 0
SMALL
GASTEIGER

@<TRIPOS>ATOM
      1 C         139.4362  137.9177  163.8805 C.3     1  UNL1        0.0570
      2 C         138.7905  139.0365  163.1181 C.3     1  UNL1        0.0331
      3 C         139.4087  139.5306  161.8439 C.3     1  UNL1        0.0735
      4 N         140.6728  138.9059  161.3321 N.3     1  UNL1       -0.2710
      5 C         141.3185  137.7871  162.0945 C.3     1  UNL1        0.0735
      6 C         140.7003  137.2930  163.3686 C.3     1  UNL1        0.0331
      7 N         138.8180  137.4236  165.1546 N.3     1  UNL1       -0.2934
      8 H         138.1128  136.7349  164.8920 H       1  UNL1        0.1236
      9 C         138.1526  138.3898  166.0894 C.3     1  UNL1        0.1152
     10 O         140.4184  142.2874  172.4475 O.2     1  UNL1       -0.2707
     11 C         140.4610  142.0894  170.9612 C.2     1  UNL1        0.2718
     12 C         141.3014  142.9926  170.1080 C.3     1  UNL1        0.2898
     13 O         141.3440  142.7946  168.6218 O.3     1  UNL1       -0.4628
     14 C         140.5462  141.6934  167.9887 C.ar    1  UNL1        0.1708
     15 C         140.5888  141.4954  166.5024 C.ar    1  UNL1        0.0411
     16 C         139.7909  140.3942  165.8693 C.ar    1  UNL1        0.0193
     17 C         138.9505  139.4910  166.7225 C.ar    1  UNL1        0.0765
     18 N         138.9079  139.6890  168.2088 N.ar    1  UNL1       -0.2304
     19 C         139.7058  140.7902  168.8419 C.ar    1  UNL1        0.1682
     20 N         139.6632  140.9883  170.3281 N.am    1  UNL1       -0.2639
     21 H         139.1116  140.3955  170.8881 H       1  UNL1        0.1565
     22 C         141.2911  139.4000  160.0579 C.3     1  UNL1        0.0970
     23 C         142.6798  139.9669  160.0687 C.3     1  UNL1        0.1264
     24 N         143.3207  140.3566  161.3677 N.ar    1  UNL1       -0.2926
     25 C         144.1646  139.3665  162.1144 C.ar    1  UNL1        0.2611
     26 O         144.3676  137.9867  161.5621 O.2     1  UNL1       -0.2670
     27 C         144.8055  139.7562  163.4134 C.ar    1  UNL1        0.0623
     28 C         144.6026  141.1360  163.9657 C.ar    1  UNL1        0.0255
     29 C         143.7587  142.1261  163.2190 C.ar    1  UNL1        0.0975
     30 N         143.5557  143.5058  163.7713 N.ar    1  UNL1       -0.2392
     31 C         142.7118  144.4959  163.0246 C.ar    1  UNL1        0.1357
     32 C         142.0709  144.1063  161.7256 C.ar    1  UNL1        0.1597
     33 C         142.2738  142.7264  161.1733 C.ar    1  UNL1        0.0573
     34 C         143.1177  141.7364  161.9200 C.ar    1  UNL1        0.0832
     35 O         141.2269  145.0964  160.9789 O.3     1  UNL1       -0.4673
     36 C         139.9066  145.5319  161.5421 C.3     1  UNL1        0.2527
     37 C         139.0757  144.5685  162.3368 C.ar    1  UNL1        0.1242
     38 C         138.9971  144.6995  163.8290 C.ar    1  UNL1        0.0219
     39 C         138.1663  143.7362  164.6238 C.ar    1  UNL1        0.0239
     40 C         137.4141  142.6418  163.9264 C.ar    1  UNL1        0.1222
     41 N         137.4926  142.5107  162.4341 N.ar    1  UNL1       -0.1466
     42 N         138.3235  143.4741  161.6393 N.ar    1  UNL1       -0.1486
@<TRIPOS>BOND
     1    10    11    2
     2    11    12    1
     3    12    13    1
     4    13    14    1
     5    14    15   ar
     6    15    16   ar
     7    16    17   ar
     8    17     9    1
     9     9     7    1
    10     7     1    1
    11     1     2    1
    12     2     3    1
    13     3     4    1
    14     4    22    1
    15    22    23    1
    16    23    24    1
    17    24    25   ar
    18    25    26    2
    19    25    27   ar
    20    27    28   ar
    21    28    29   ar
    22    29    30   ar
    23    30    31   ar
    24    31    32   ar
    25    32    35    1
    26    35    36    1
    27    36    37    1
    28    37    38   ar
    29    38    39   ar
    30    39    40   ar
    31    40    41   ar
    32    41    42   ar
    33    32    33   ar
    34    33    34   ar
    35     4     5    1
    36     5     6    1
    37    17    18   ar
    38    18    19   ar
    39    19    20    1
    40    20    11   am
    41    19    14   ar
    42     6     1    1
    43    34    24   ar
    44    34    29   ar
    45    42    37   ar
    46     7     8    1
    47    20    21    1
@<TRIPOS>MOLECULE
*****
 42 47 0 0 0
SMALL
GASTEIGER

@<TRIPOS>ATOM
      1 C         144.2252  139.7850  163.4225 C.3     1  UNL1        0.0570
      2 C         143.7262  139.8467  164.8356 C.3     1  UNL1        0.0331
      3 C         142.4659  139.1287  165.2181 C.3     1  UNL1        0.0735
      4 N         141.7047  138.3489  164.1872 N.3     1  UNL1       -0.2710
      5 C         142.2038  138.2872  162.7740 C.3     1  UNL1        0.0735
      6 C         143.4640  139.0052  162.3916 C.3     1  UNL1        0.0331
      7 N         145.4854  140.5030  163.0401 N.3     1  UNL1       -0.2934
      8 H         146.2509  140.0309  163.5213 H       1  UNL1        0.1236
      9 C         145.6309  141.9679  163.3282 C.3     1  UNL1        0.1152
     10 O         140.3661  145.3470  158.6791 O.2     1  UNL1       -0.2707
     11 C         140.9509  145.1410  160.0450 C.2     1  UNL1        0.2718
     12 C         140.3657  145.8553  161.2270 C.3     1  UNL1        0.2898
     13 O         140.9505  145.6493  162.5928 O.3     1  UNL1       -0.4628
     14 C         142.1206  144.7290  162.7767 C.ar    1  UNL1        0.1708
     15 C         142.7054  144.5229  164.1425 C.ar    1  UNL1        0.0411
     16 C         143.8755  143.6026  164.3264 C.ar    1  UNL1        0.0193
     17 C         144.4608  142.8883  163.1443 C.ar    1  UNL1        0.0765
     18 N         143.8760  143.0943  161.7785 N.ar    1  UNL1       -0.2304
     19 C         142.7058  144.0147  161.5947 C.ar    1  UNL1        0.1682
     20 N         142.1210  144.2207  160.2288 N.am    1  UNL1       -0.2639
     21 H         142.5052  143.7519  159.4530 H       1  UNL1        0.1565
     22 C         140.4445  137.6309  164.5696 C.3     1  UNL1        0.0970
     23 C         139.1723  138.4011  164.7647 C.3     1  UNL1        0.1264
     24 N         138.7269  139.3890  163.7275 N.ar    1  UNL1       -0.2926
     25 C         138.1729  138.9053  162.4202 C.ar    1  UNL1        0.2611
     26 O         138.0641  137.4338  162.1501 O.2     1  UNL1       -0.2670
     27 C         137.7275  139.8932  161.3829 C.ar    1  UNL1        0.0623
     28 C         137.8363  141.3647  161.6530 C.ar    1  UNL1        0.0255
     29 C         138.3903  141.8483  162.9603 C.ar    1  UNL1        0.0975
     30 N         138.4991  143.3197  163.2304 N.ar    1  UNL1       -0.2392
     31 C         139.0531  143.8034  164.5378 C.ar    1  UNL1        0.1357
     32 C         139.4985  142.8156  165.5750 C.ar    1  UNL1        0.1597
     33 C         139.3897  141.3440  165.3049 C.ar    1  UNL1        0.0573
     34 C         138.8357  140.8604  163.9976 C.ar    1  UNL1        0.0832
     35 O         140.0525  143.2992  166.8823 O.3     1  UNL1       -0.4673
     36 C         141.2348  142.6101  167.4967 C.3     1  UNL1        0.2527
     37 C         141.1232  142.0059  168.8651 C.ar    1  UNL1        0.1242
     38 C         140.3936  140.7092  169.0552 C.ar    1  UNL1        0.0219
     39 C         140.2819  140.1050  170.4236 C.ar    1  UNL1        0.0239
     40 C         140.8998  140.7976  171.6019 C.ar    1  UNL1        0.1222
     41 N         141.6295  142.0944  171.4119 N.ar    1  UNL1       -0.1466
     42 N         141.7411  142.6985  170.0435 N.ar    1  UNL1       -0.1486
@<TRIPOS>BOND
     1    10    11    2
     2    11    12    1
     3    12    13    1
     4    13    14    1
     5    14    15   ar
     6    15    16   ar
     7    16    17   ar
     8    17     9    1
     9     9     7    1
    10     7     1    1
    11     1     2    1
    12     2     3    1
    13     3     4    1
    14     4    22    1
    15    22    23    1
    16    23    24    1
    17    24    25   ar
    18    25    26    2
    19    25    27   ar
    20    27    28   ar
    21    28    29   ar
    22    29    30   ar
    23    30    31   ar
    24    31    32   ar
    25    32    35    1
    26    35    36    1
    27    36    37    1
    28    37    38   ar
    29    38    39   ar
    30    39    40   ar
    31    40    41   ar
    32    41    42   ar
    33    32    33   ar
    34    33    34   ar
    35     4     5    1
    36     5     6    1
    37    17    18   ar
    38    18    19   ar
    39    19    20    1
    40    20    11   am
    41    19    14   ar
    42     6     1    1
    43    34    24   ar
    44    34    29   ar
    45    42    37   ar
    46     7     8    1
    47    20    21    1
@<TRIPOS>MOLECULE
*****
 42 47 0 0 0
SMALL
GASTEIGER

@<TRIPOS>ATOM
      1 C         141.8089  137.9982  163.1769 C.3     1  UNL1        0.0570
      2 C         142.6980  138.4490  162.0561 C.3     1  UNL1        0.0331
      3 C         143.8899  139.3128  162.3452 C.3     1  UNL1        0.0735
      4 N         144.1926  139.7257  163.7551 N.3     1  UNL1       -0.2710
      5 C         143.3034  139.2748  164.8760 C.3     1  UNL1        0.0735
      6 C         142.1116  138.4111  164.5868 C.3     1  UNL1        0.0331
      7 N         140.6172  137.1346  162.8877 N.3     1  UNL1       -0.2934
      8 H         140.6340  136.9348  161.8876 H       1  UNL1        0.1236
      9 C         139.2374  137.6288  163.2075 C.3     1  UNL1        0.1152
     10 O         138.4747  145.0498  165.4651 O.2     1  UNL1       -0.2707
     11 C         138.3506  143.9949  164.4060 C.2     1  UNL1        0.2718
     12 C         137.8483  144.3587  163.0402 C.3     1  UNL1        0.2898
     13 O         137.7243  143.3038  161.9811 O.3     1  UNL1       -0.4628
     14 C         138.1026  141.8851  162.2877 C.ar    1  UNL1        0.1708
     15 C         137.9785  140.8301  161.2285 C.ar    1  UNL1        0.0411
     16 C         138.3568  139.4114  161.5351 C.ar    1  UNL1        0.0193
     17 C         138.8591  139.0475  162.9009 C.ar    1  UNL1        0.0765
     18 N         138.9832  140.1024  163.9601 N.ar    1  UNL1       -0.2304
     19 C         138.6049  141.5212  163.6534 C.ar    1  UNL1        0.1682
     20 N         138.7289  142.5761  164.7126 N.am    1  UNL1       -0.2639
     21 H         139.0586  142.3373  165.6089 H       1  UNL1        0.1565
     22 C         145.3843  140.5894  164.0443 C.3     1  UNL1        0.0970
     23 C         145.5773  141.8757  163.2972 C.3     1  UNL1        0.1264
     24 N         144.4203  142.8100  163.1012 N.ar    1  UNL1       -0.2926
     25 C         143.7819  143.4721  164.2862 C.ar    1  UNL1        0.2611
     26 O         144.3006  143.1999  165.6671 O.2     1  UNL1       -0.2670
     27 C         142.6250  144.4065  164.0903 C.ar    1  UNL1        0.0623
     28 C         142.1063  144.6787  162.7093 C.ar    1  UNL1        0.0255
     29 C         142.7446  144.0166  161.5244 C.ar    1  UNL1        0.0975
     30 N         142.2260  144.2888  160.1435 N.ar    1  UNL1       -0.2392
     31 C         142.8643  143.6267  158.9585 C.ar    1  UNL1        0.1357
     32 C         144.0213  142.6924  159.1545 C.ar    1  UNL1        0.1597
     33 C         144.5400  142.4201  160.5354 C.ar    1  UNL1        0.0573
     34 C         143.9016  143.0822  161.7204 C.ar    1  UNL1        0.0832
     35 O         144.6596  142.0302  157.9695 O.3     1  UNL1       -0.4673
     36 C         143.8085  141.3228  156.9569 C.3     1  UNL1        0.2527
     37 C         143.4629  139.8756  157.1475 C.ar    1  UNL1        0.1242
     38 C         142.5071  139.4690  158.2296 C.ar    1  UNL1        0.0219
     39 C         142.1615  138.0218  158.4201 C.ar    1  UNL1        0.0239
     40 C         142.7717  136.9813  157.5286 C.ar    1  UNL1        0.1222
     41 N         143.7275  137.3879  156.4464 N.ar    1  UNL1       -0.1466
     42 N         144.0732  138.8351  156.2558 N.ar    1  UNL1       -0.1486
@<TRIPOS>BOND
     1    10    11    2
     2    11    12    1
     3    12    13    1
     4    13    14    1
     5    14    15   ar
     6    15    16   ar
     7    16    17   ar
     8    17     9    1
     9     9     7    1
    10     7     1    1
    11     1     2    1
    12     2     3    1
    13     3     4    1
    14     4    22    1
    15    22    23    1
    16    23    24    1
    17    24    25   ar
    18    25    26    2
    19    25    27   ar
    20    27    28   ar
    21    28    29   ar
    22    29    30   ar
    23    30    31   ar
    24    31    32   ar
    25    32    35    1
    26    35    36    1
    27    36    37    1
    28    37    38   ar
    29    38    39   ar
    30    39    40   ar
    31    40    41   ar
    32    41    42   ar
    33    32    33   ar
    34    33    34   ar
    35     4     5    1
    36     5     6    1
    37    17    18   ar
    38    18    19   ar
    39    19    20    1
    40    20    11   am
    41    19    14   ar
    42     6     1    1
    43    34    24   ar
    44    34    29   ar
    45    42    37   ar
    46     7     8    1
    47    20    21    1
@<TRIPOS>MOLECULE
*****
 42 47 0 0 0
SMALL
GASTEIGER

@<TRIPOS>ATOM
      1 C         138.5303  140.1804  161.1614 C.3     1  UNL1        0.0570
      2 C         138.2456  139.9743  162.6196 C.3     1  UNL1        0.0331
      3 C         137.8719  141.1424  163.4833 C.3     1  UNL1        0.0735
      4 N         137.7828  142.5166  162.8887 N.3     1  UNL1       -0.2710
      5 C         138.0675  142.7227  161.4304 C.3     1  UNL1        0.0735
      6 C         138.4412  141.5547  160.5668 C.3     1  UNL1        0.0331
      7 N         138.9040  139.0124  160.2978 N.3     1  UNL1       -0.2934
      8 H         138.7402  138.1720  160.8521 H       1  UNL1        0.1236
      9 C         140.2943  138.9025  159.7453 C.3     1  UNL1        0.1152
     10 O         144.2096  138.2092  166.4490 O.2     1  UNL1       -0.2707
     11 C         144.0828  138.7929  165.0730 C.2     1  UNL1        0.2718
     12 C         145.1343  139.7292  164.5557 C.3     1  UNL1        0.2898
     13 O         145.0075  140.3129  163.1798 O.3     1  UNL1       -0.4628
     14 C         143.8292  139.9603  162.3212 C.ar    1  UNL1        0.1708
     15 C         143.7024  140.5441  160.9452 C.ar    1  UNL1        0.0411
     16 C         142.5241  140.1915  160.0866 C.ar    1  UNL1        0.0193
     17 C         141.4725  139.2551  160.6039 C.ar    1  UNL1        0.0765
     18 N         141.5993  138.6714  161.9799 N.ar    1  UNL1       -0.2304
     19 C         142.7777  139.0240  162.8385 C.ar    1  UNL1        0.1682
     20 N         142.9045  138.4403  164.2144 N.am    1  UNL1       -0.2639
     21 H         142.2144  137.8258  164.5539 H       1  UNL1        0.1565
     22 C         137.4091  143.6847  163.7523 C.3     1  UNL1        0.0970
     23 C         138.4797  144.5527  164.3441 C.3     1  UNL1        0.1264
     24 N         139.8778  144.4928  163.8038 N.ar    1  UNL1       -0.2926
     25 C         140.2147  145.1851  162.5165 C.ar    1  UNL1        0.2611
     26 O         139.1535  145.9375  161.7695 O.2     1  UNL1       -0.2670
     27 C         141.6127  145.1252  161.9762 C.ar    1  UNL1        0.0623
     28 C         142.6739  144.3729  162.7232 C.ar    1  UNL1        0.0255
     29 C         142.3370  143.6805  164.0105 C.ar    1  UNL1        0.0975
     30 N         143.3981  142.9281  164.7575 N.ar    1  UNL1       -0.2392
     31 C         143.0612  142.2358  166.0448 C.ar    1  UNL1        0.1357
     32 C         141.6632  142.2957  166.5851 C.ar    1  UNL1        0.1597
     33 C         140.6020  143.0481  165.8381 C.ar    1  UNL1        0.0573
     34 C         140.9389  143.7404  164.5508 C.ar    1  UNL1        0.0832
     35 O         141.3263  141.6033  167.8724 O.3     1  UNL1       -0.4673
     36 C         139.9902  140.9425  168.0412 C.3     1  UNL1        0.2527
     37 C         139.5984  139.8039  167.1468 C.ar    1  UNL1        0.1242
     38 C         138.2517  139.1607  167.2978 C.ar    1  UNL1        0.0219
     39 C         137.8599  138.0221  166.4033 C.ar    1  UNL1        0.0239
     40 C         138.8146  137.5267  165.3578 C.ar    1  UNL1        0.1222
     41 N         140.1613  138.1699  165.2068 N.ar    1  UNL1       -0.1466
     42 N         140.5532  139.3085  166.1012 N.ar    1  UNL1       -0.1486
@<TRIPOS>BOND
     1    10    11    2
     2    11    12    1
     3    12    13    1
     4    13    14    1
     5    14    15   ar
     6    15    16   ar
     7    16    17   ar
     8    17     9    1
     9     9     7    1
    10     7     1    1
    11     1     2    1
    12     2     3    1
    13     3     4    1
    14     4    22    1
    15    22    23    1
    16    23    24    1
    17    24    25   ar
    18    25    26    2
    19    25    27   ar
    20    27    28   ar
    21    28    29   ar
    22    29    30   ar
    23    30    31   ar
    24    31    32   ar
    25    32    35    1
    26    35    36    1
    27    36    37    1
    28    37    38   ar
    29    38    39   ar
    30    39    40   ar
    31    40    41   ar
    32    41    42   ar
    33    32    33   ar
    34    33    34   ar
    35     4     5    1
    36     5     6    1
    37    17    18   ar
    38    18    19   ar
    39    19    20    1
    40    20    11   am
    41    19    14   ar
    42     6     1    1
    43    34    24   ar
    44    34    29   ar
    45    42    37   ar
    46     7     8    1
    47    20    21    1
@<TRIPOS>MOLECULE
*****
 42 47 0 0 0
SMALL
GASTEIGER

@<TRIPOS>ATOM
      1 C         140.5385  144.6749  164.0473 C.3     1  UNL1        0.0570
      2 C         140.8340  145.1601  162.6590 C.3     1  UNL1        0.0331
      3 C         142.1294  144.7946  161.9967 C.3     1  UNL1        0.0735
      4 N         143.1291  143.9440  162.7227 N.3     1  UNL1       -0.2710
      5 C         142.8335  143.4589  164.1110 C.3     1  UNL1        0.0735
      6 C         141.5382  143.8243  164.7732 C.3     1  UNL1        0.0331
      7 N         139.2432  145.0404  164.7095 N.3     1  UNL1       -0.2934
      8 H         139.3946  144.9631  165.7153 H       1  UNL1        0.1236
      9 C         137.9970  144.2656  164.3985 C.3     1  UNL1        0.1152
     10 O         138.4280  139.6038  158.1669 O.2     1  UNL1       -0.2707
     11 C         138.3840  139.7815  159.6557 C.2     1  UNL1        0.2718
     12 C         138.4397  138.5832  160.5561 C.3     1  UNL1        0.2898
     13 O         138.3958  138.7609  162.0449 O.3     1  UNL1       -0.4628
     14 C         138.2961  140.1371  162.6333 C.ar    1  UNL1        0.1708
     15 C         138.2521  140.3148  164.1221 C.ar    1  UNL1        0.0411
     16 C         138.1524  141.6910  164.7105 C.ar    1  UNL1        0.0193
     17 C         138.0967  142.8894  163.8101 C.ar    1  UNL1        0.0765
     18 N         138.1406  142.7117  162.3213 N.ar    1  UNL1       -0.2304
     19 C         138.2404  141.3354  161.7329 C.ar    1  UNL1        0.1682
     20 N         138.2843  141.1577  160.2441 N.am    1  UNL1       -0.2639
     21 H         138.2477  141.9442  159.6532 H       1  UNL1        0.1565
     22 C         144.4244  143.5786  162.0604 C.3     1  UNL1        0.0970
     23 C         144.8083  142.1365  161.9085 C.3     1  UNL1        0.1264
     24 N         143.9141  141.1977  161.1541 N.ar    1  UNL1       -0.2926
     25 C         143.6794  141.4022  159.6867 C.ar    1  UNL1        0.2611
     26 O         144.3388  142.5455  158.9739 O.2     1  UNL1       -0.2670
     27 C         142.7852  140.4635  158.9323 C.ar    1  UNL1        0.0623
     28 C         142.1258  139.3202  159.6452 C.ar    1  UNL1        0.0255
     29 C         142.3606  139.1157  161.1125 C.ar    1  UNL1        0.0975
     30 N         141.7012  137.9725  161.8254 N.ar    1  UNL1       -0.2392
     31 C         141.9360  137.7680  163.2927 C.ar    1  UNL1        0.1357
     32 C         142.8301  138.7068  164.0472 C.ar    1  UNL1        0.1597
     33 C         143.4895  139.8500  163.3343 C.ar    1  UNL1        0.0573
     34 C         143.2548  140.0545  161.8670 C.ar    1  UNL1        0.0832
     35 O         143.0649  138.5023  165.5145 O.3     1  UNL1       -0.4673
     36 C         142.0737  139.0237  166.5125 C.3     1  UNL1        0.2527
     37 C         142.5263  139.9394  167.6109 C.ar    1  UNL1        0.1242
     38 C         142.7013  141.4046  167.3415 C.ar    1  UNL1        0.0219
     39 C         143.1539  142.3203  168.4400 C.ar    1  UNL1        0.0239
     40 C         143.4315  141.7709  169.8078 C.ar    1  UNL1        0.1222
     41 N         143.2566  140.3056  170.0772 N.ar    1  UNL1       -0.1466
     42 N         142.8040  139.3899  168.9788 N.ar    1  UNL1       -0.1486
@<TRIPOS>BOND
     1    10    11    2
     2    11    12    1
     3    12    13    1
     4    13    14    1
     5    14    15   ar
     6    15    16   ar
     7    16    17   ar
     8    17     9    1
     9     9     7    1
    10     7     1    1
    11     1     2    1
    12     2     3    1
    13     3     4    1
    14     4    22    1
    15    22    23    1
    16    23    24    1
    17    24    25   ar
    18    25    26    2
    19    25    27   ar
    20    27    28   ar
    21    28    29   ar
    22    29    30   ar
    23    30    31   ar
    24    31    32   ar
    25    32    35    1
    26    35    36    1
    27    36    37    1
    28    37    38   ar
    29    38    39   ar
    30    39    40   ar
    31    40    41   ar
    32    41    42   ar
    33    32    33   ar
    34    33    34   ar
    35     4     5    1
    36     5     6    1
    37    17    18   ar
    38    18    19   ar
    39    19    20    1
    40    20    11   am
    41    19    14   ar
    42     6     1    1
    43    34    24   ar
    44    34    29   ar
    45    42    37   ar
    46     7     8    1
    47    20    21    1
