@<TRIPOS>MOLECULE
*****
 40 43 0 0 0
SMALL
GASTEIGER

@<TRIPOS>ATOM
      1 C         141.2483  142.0069  164.4026 C.3     1  UNL1        0.0798
      2 C         142.1269  142.1688  163.1975 C.ar    1  UNL1        0.0374
      3 C         141.8941  141.3232  161.9806 C.ar    1  UNL1        0.0023
      4 C         142.7726  141.4851  160.7756 C.ar    1  UNL1        0.0181
      5 C         142.5399  140.6395  159.5587 C.ar    1  UNL1        0.0082
      6 C         143.4183  140.8015  158.3538 C.ar    1  UNL1        0.0347
      7 BR        143.1856  139.9559  157.1368 Br      1  UNL1       -0.0490
      8 C         144.5296  141.8089  158.3656 C.ar    1  UNL1        0.0082
      9 C         144.7623  142.6545  159.5825 C.ar    1  UNL1        0.0197
     10 C         143.8839  142.4926  160.7875 C.ar    1  UNL1        0.0844
     11 N         144.1166  143.3382  162.0044 N.ar    1  UNL1       -0.2119
     12 C         143.2381  143.1763  163.2094 C.ar    1  UNL1        0.2211
     13 O         143.4708  144.0219  164.4263 O.3     1  UNL1       -0.4563
     14 C         144.6226  143.7216  165.3391 C.3     1  UNL1        0.2542
     15 C         141.7997  141.3942  165.6558 C.ar    1  UNL1        0.0115
     16 C         141.7284  142.1454  166.9521 C.ar    1  UNL1       -0.0017
     17 C         142.2797  141.5326  168.2053 C.ar    1  UNL1       -0.0005
     18 C         142.9023  140.1686  168.1622 C.ar    1  UNL1       -0.0021
     19 C         142.9736  139.4174  166.8658 C.ar    1  UNL1        0.0053
     20 C         143.5962  138.0534  166.8226 C.3     1  UNL1        0.0334
     21 C         142.4223  140.0302  165.6126 C.ar    1  UNL1        0.1325
     22 F         142.4936  139.2790  164.3162 F       1  UNL1       -0.2048
     23 C         139.8185  142.4578  164.3543 C.3     1  UNL1        0.1162
     24 O         140.2718  143.8742  164.1585 O.3     1  UNL1       -0.3820
     25 H         139.4978  144.4544  164.0869 H       1  UNL1        0.2107
     26 C         138.9476  138.6606  163.5977 C.ar    1  UNL1        0.2272
     27 C         139.4008  140.0770  163.4019 C.ar    1  UNL1        0.0559
     28 C         139.3653  141.0414  164.5502 C.ar    1  UNL1        0.0117
     29 C         138.8764  140.5894  165.8943 C.ar    1  UNL1        0.0559
     30 C         138.4231  139.1730  166.0901 C.ar    1  UNL1        0.2272
     31 N         138.4587  138.2086  164.9418 N.ar    1  UNL1       -0.1767
     32 C         139.3198  138.1832  161.0711 C.3     1  UNL1        0.2542
     33 O         138.9832  137.6962  162.4493 O.3     1  UNL1       -0.4561
     34 O         137.9342  138.7210  167.4343 O.3     1  UNL1       -0.4561
     35 C         136.9296  137.6115  167.5327 C.3     1  UNL1        0.2542
     36 C         138.3887  142.9087  164.3061 C.3     1  UNL1        0.0491
     37 C         137.9017  143.7362  163.1537 C.3     1  UNL1        0.0750
     38 N         138.5196  143.5699  161.7970 N.3     1  UNL1       -0.2702
     39 C         139.4928  144.5905  161.2859 C.3     1  UNL1        0.0897
     40 C         138.1642  142.3831  160.9514 C.3     1  UNL1        0.0897
@<TRIPOS>BOND
     1    32    33    1
     2    33    26    1
     3    26    27   ar
     4    27    28   ar
     5    28    23    1
     6    23    24    1
     7    23    36    1
     8    36    37    1
     9    37    38    1
    10    38    39    1
    11    38    40    1
    12    23     1    1
    13     1     2    1
    14     2     3   ar
    15     3     4   ar
    16     4     5   ar
    17     5     6   ar
    18     6     7    1
    19     6     8   ar
    20     8     9   ar
    21     9    10   ar
    22    10    11   ar
    23    11    12   ar
    24    12    13    1
    25    13    14    1
    26     1    15    1
    27    15    16   ar
    28    16    17   ar
    29    17    18   ar
    30    18    19   ar
    31    19    20    1
    32    19    21   ar
    33    21    22    1
    34    28    29   ar
    35    29    30   ar
    36    30    34    1
    37    34    35    1
    38    30    31   ar
    39    31    26   ar
    40    12     2   ar
    41    21    15   ar
    42    10     4   ar
    43    24    25    1
@<TRIPOS>MOLECULE
*****
 40 43 0 0 0
SMALL
GASTEIGER

@<TRIPOS>ATOM
      1 C         141.2562  141.9880  164.4037 C.3     1  UNL1        0.0798
      2 C         142.1324  142.1512  163.1972 C.ar    1  UNL1        0.0374
      3 C         141.9006  141.3032  161.9818 C.ar    1  UNL1        0.0023
      4 C         142.7768  141.4664  160.7752 C.ar    1  UNL1        0.0181
      5 C         142.5451  140.6185  159.5598 C.ar    1  UNL1        0.0082
      6 C         143.4213  140.7817  158.3533 C.ar    1  UNL1        0.0347
      7 BR        143.1896  139.9337  157.1379 Br      1  UNL1       -0.0490
      8 C         144.5292  141.7928  158.3623 C.ar    1  UNL1        0.0082
      9 C         144.7609  142.6408  159.5777 C.ar    1  UNL1        0.0197
     10 C         143.8848  142.4776  160.7841 C.ar    1  UNL1        0.0844
     11 N         144.1165  143.3256  161.9996 N.ar    1  UNL1       -0.2119
     12 C         143.2403  143.1623  163.2061 C.ar    1  UNL1        0.2211
     13 O         143.4720  144.0103  164.4216 O.3     1  UNL1       -0.4563
     14 C         144.6232  143.7120  165.3358 C.3     1  UNL1        0.2542
     15 C         141.8108  141.3767  165.6562 C.ar    1  UNL1        0.0115
     16 C         141.7459  142.1309  166.9512 C.ar    1  UNL1       -0.0017
     17 C         142.3005  141.5196  168.2037 C.ar    1  UNL1       -0.0005
     18 C         142.9199  140.1541  168.1612 C.ar    1  UNL1       -0.0021
     19 C         142.9848  139.4000  166.8662 C.ar    1  UNL1        0.0053
     20 C         143.6043  138.0345  166.8237 C.3     1  UNL1        0.0334
     21 C         142.4302  140.0113  165.6137 C.ar    1  UNL1        0.1325
     22 F         142.4951  139.2571  164.3187 F       1  UNL1       -0.2048
     23 C         139.8254  142.4361  164.3577 C.3     1  UNL1        0.1162
     24 O         140.2756  143.8530  164.1580 O.3     1  UNL1       -0.3820
     25 H         139.5003  144.4316  164.0869 H       1  UNL1        0.2107
     26 C         138.4373  139.1531  166.1026 C.ar    1  UNL1        0.2272
     27 C         138.8874  140.5699  165.9028 C.ar    1  UNL1        0.0559
     28 C         139.3752  141.0193  164.5575 C.ar    1  UNL1        0.0117
     29 C         139.4129  140.0518  163.4118 C.ar    1  UNL1        0.0559
     30 C         138.9627  138.6349  163.6116 C.ar    1  UNL1        0.2272
     31 N         138.4749  138.1856  164.9569 N.ar    1  UNL1       -0.1767
     32 C         136.9102  137.6267  167.5477 C.3     1  UNL1        0.2542
     33 O         137.9494  138.7037  167.4480 O.3     1  UNL1       -0.4561
     34 O         139.0004  137.6674  162.4659 O.3     1  UNL1       -0.4561
     35 C         139.0887  138.1759  161.0574 C.3     1  UNL1        0.2542
     36 C         138.3947  142.8842  164.3117 C.3     1  UNL1        0.0491
     37 C         137.9052  143.7141  163.1621 C.3     1  UNL1        0.0750
     38 N         138.5085  143.5385  161.8000 N.3     1  UNL1       -0.2702
     39 C         139.4884  144.5471  161.2781 C.3     1  UNL1        0.0897
     40 C         138.1318  142.3544  160.9598 C.3     1  UNL1        0.0897
@<TRIPOS>BOND
     1    32    33    1
     2    33    26    1
     3    26    27   ar
     4    27    28   ar
     5    28    23    1
     6    23    24    1
     7    23    36    1
     8    36    37    1
     9    37    38    1
    10    38    39    1
    11    38    40    1
    12    23     1    1
    13     1     2    1
    14     2     3   ar
    15     3     4   ar
    16     4     5   ar
    17     5     6   ar
    18     6     7    1
    19     6     8   ar
    20     8     9   ar
    21     9    10   ar
    22    10    11   ar
    23    11    12   ar
    24    12    13    1
    25    13    14    1
    26     1    15    1
    27    15    16   ar
    28    16    17   ar
    29    17    18   ar
    30    18    19   ar
    31    19    20    1
    32    19    21   ar
    33    21    22    1
    34    28    29   ar
    35    29    30   ar
    36    30    34    1
    37    34    35    1
    38    30    31   ar
    39    31    26   ar
    40    12     2   ar
    41    21    15   ar
    42    10     4   ar
    43    24    25    1
@<TRIPOS>MOLECULE
*****
 40 43 0 0 0
SMALL
GASTEIGER

@<TRIPOS>ATOM
      1 C         140.7537  140.6055  163.1046 C.3     1  UNL1        0.0798
      2 C         140.4427  140.5235  164.5698 C.ar    1  UNL1        0.0374
      3 C         140.6604  141.7179  165.4506 C.ar    1  UNL1        0.0023
      4 C         140.3494  141.6360  166.9158 C.ar    1  UNL1        0.0181
      5 C         140.5671  142.8304  167.7967 C.ar    1  UNL1        0.0082
      6 C         140.2562  142.7484  169.2617 C.ar    1  UNL1        0.0347
      7 BR        140.4739  143.9429  170.1427 Br      1  UNL1       -0.0490
      8 C         139.7275  141.4720  169.8460 C.ar    1  UNL1        0.0082
      9 C         139.5098  140.2776  168.9651 C.ar    1  UNL1        0.0197
     10 C         139.8208  140.3596  167.5000 C.ar    1  UNL1        0.0844
     11 N         139.6031  139.1651  166.6191 N.ar    1  UNL1       -0.2119
     12 C         139.9140  139.2471  165.1540 C.ar    1  UNL1        0.2211
     13 O         139.6964  138.0527  164.2731 O.3     1  UNL1       -0.4563
     14 C         140.7214  136.9585  164.2262 C.3     1  UNL1        0.2542
     15 C         141.8874  139.8070  162.5327 C.ar    1  UNL1        0.0115
     16 C         143.1998  139.7433  163.2562 C.ar    1  UNL1       -0.0017
     17 C         144.3335  138.9448  162.6843 C.ar    1  UNL1       -0.0005
     18 C         144.1547  138.2099  161.3888 C.ar    1  UNL1       -0.0021
     19 C         142.8423  138.2736  160.6654 C.ar    1  UNL1        0.0053
     20 C         142.6635  137.5388  159.3700 C.3     1  UNL1        0.0334
     21 C         141.7086  139.0721  161.2373 C.ar    1  UNL1        0.1325
     22 F         140.3961  139.1358  160.5139 F       1  UNL1       -0.2048
     23 C         139.9309  141.4859  162.2114 C.3     1  UNL1        0.1162
     24 O         138.7157  140.6620  162.5186 O.3     1  UNL1       -0.3820
     25 H         137.9521  141.0212  162.0402 H       1  UNL1        0.2107
     26 C         142.8533  143.2470  160.1845 C.ar    1  UNL1        0.2272
     27 C         141.6381  142.4231  160.4917 C.ar    1  UNL1        0.0559
     28 C         141.1461  142.3099  161.9042 C.ar    1  UNL1        0.0117
     29 C         141.8694  143.0206  163.0095 C.ar    1  UNL1        0.0559
     30 C         143.0846  143.8445  162.7023 C.ar    1  UNL1        0.2272
     31 N         143.5766  143.9578  161.2898 N.ar    1  UNL1       -0.1767
     32 C         144.5456  142.5764  158.3308 C.3     1  UNL1        0.2542
     33 O         143.3452  143.3602  158.7720 O.3     1  UNL1       -0.4561
     34 O         143.8079  144.5553  163.8077 O.3     1  UNL1       -0.4561
     35 C         144.2699  143.7923  165.0137 C.3     1  UNL1        0.2542
     36 C         139.1081  142.3664  161.3182 C.3     1  UNL1        0.0491
     37 C         138.0227  143.2217  161.9016 C.3     1  UNL1        0.0750
     38 N         138.3569  144.2563  162.9349 N.3     1  UNL1       -0.2702
     39 C         137.8759  144.0899  164.3459 C.3     1  UNL1        0.0897
     40 C         139.1721  145.4575  162.5573 C.3     1  UNL1        0.0897
@<TRIPOS>BOND
     1    32    33    1
     2    33    26    1
     3    26    27   ar
     4    27    28   ar
     5    28    23    1
     6    23    24    1
     7    23    36    1
     8    36    37    1
     9    37    38    1
    10    38    39    1
    11    38    40    1
    12    23     1    1
    13     1     2    1
    14     2     3   ar
    15     3     4   ar
    16     4     5   ar
    17     5     6   ar
    18     6     7    1
    19     6     8   ar
    20     8     9   ar
    21     9    10   ar
    22    10    11   ar
    23    11    12   ar
    24    12    13    1
    25    13    14    1
    26     1    15    1
    27    15    16   ar
    28    16    17   ar
    29    17    18   ar
    30    18    19   ar
    31    19    20    1
    32    19    21   ar
    33    21    22    1
    34    28    29   ar
    35    29    30   ar
    36    30    34    1
    37    34    35    1
    38    30    31   ar
    39    31    26   ar
    40    12     2   ar
    41    21    15   ar
    42    10     4   ar
    43    24    25    1
@<TRIPOS>MOLECULE
*****
 40 43 0 0 0
SMALL
GASTEIGER

@<TRIPOS>ATOM
      1 C         140.7278  140.6397  163.1924 C.3     1  UNL1        0.0798
      2 C         140.4179  140.5536  164.6576 C.ar    1  UNL1        0.0374
      3 C         140.6336  141.7464  165.5411 C.ar    1  UNL1        0.0023
      4 C         140.3237  141.6603  167.0063 C.ar    1  UNL1        0.0181
      5 C         140.5395  142.8530  167.8899 C.ar    1  UNL1        0.0082
      6 C         140.2295  142.7669  169.3549 C.ar    1  UNL1        0.0347
      7 BR        140.4453  143.9597  170.2386 Br      1  UNL1       -0.0490
      8 C         139.7039  141.4881  169.9364 C.ar    1  UNL1        0.0082
      9 C         139.4881  140.2953  169.0529 C.ar    1  UNL1        0.0197
     10 C         139.7980  140.3814  167.5878 C.ar    1  UNL1        0.0844
     11 N         139.5823  139.1886  166.7042 N.ar    1  UNL1       -0.2119
     12 C         139.8922  139.2747  165.2391 C.ar    1  UNL1        0.2211
     13 O         139.6765  138.0819  164.3554 O.3     1  UNL1       -0.4563
     14 C         140.7025  136.9888  164.3073 C.3     1  UNL1        0.2542
     15 C         141.8763  139.8617  162.6218 C.ar    1  UNL1        0.0115
     16 C         143.1817  139.8024  163.3584 C.ar    1  UNL1       -0.0017
     17 C         144.3302  139.0245  162.7877 C.ar    1  UNL1       -0.0005
     18 C         144.1734  138.3056  161.4805 C.ar    1  UNL1       -0.0021
     19 C         142.8680  138.3649  160.7440 C.ar    1  UNL1        0.0053
     20 C         142.7111  137.6461  159.4368 C.3     1  UNL1        0.0334
     21 C         141.7195  139.1429  161.3146 C.ar    1  UNL1        0.1325
     22 F         140.4141  139.2022  160.5781 F       1  UNL1       -0.2048
     23 C         139.8892  141.5037  162.2979 C.3     1  UNL1        0.1162
     24 O         138.7029  140.6241  162.5604 O.3     1  UNL1       -0.3820
     25 H         137.9359  140.9613  162.0716 H       1  UNL1        0.2107
     26 C         142.9700  143.9279  162.9161 C.ar    1  UNL1        0.2272
     27 C         141.7837  143.0483  163.1785 C.ar    1  UNL1        0.0559
     28 C         141.0755  142.3834  162.0355 C.ar    1  UNL1        0.0117
     29 C         141.5536  142.5983  160.6301 C.ar    1  UNL1        0.0559
     30 C         142.7399  143.4780  160.3677 C.ar    1  UNL1        0.2272
     31 N         143.4481  144.1428  161.5107 N.ar    1  UNL1       -0.1767
     32 C         144.3806  143.7617  165.0916 C.3     1  UNL1        0.2542
     33 O         143.6782  144.5928  164.0592 O.3     1  UNL1       -0.4561
     34 O         143.2180  143.6928  158.9622 O.3     1  UNL1       -0.4561
     35 C         143.2909  142.5363  158.0098 C.3     1  UNL1        0.2542
     36 C         139.0506  142.3678  161.4035 C.3     1  UNL1        0.0491
     37 C         137.9783  143.2369  161.9906 C.3     1  UNL1        0.0750
     38 N         138.3343  144.2908  162.9970 N.3     1  UNL1       -0.2702
     39 C         139.1194  145.4969  162.5741 C.3     1  UNL1        0.0897
     40 C         137.9053  144.1385  164.4262 C.3     1  UNL1        0.0897
@<TRIPOS>BOND
     1    32    33    1
     2    33    26    1
     3    26    27   ar
     4    27    28   ar
     5    28    23    1
     6    23    24    1
     7    23    36    1
     8    36    37    1
     9    37    38    1
    10    38    39    1
    11    38    40    1
    12    23     1    1
    13     1     2    1
    14     2     3   ar
    15     3     4   ar
    16     4     5   ar
    17     5     6   ar
    18     6     7    1
    19     6     8   ar
    20     8     9   ar
    21     9    10   ar
    22    10    11   ar
    23    11    12   ar
    24    12    13    1
    25    13    14    1
    26     1    15    1
    27    15    16   ar
    28    16    17   ar
    29    17    18   ar
    30    18    19   ar
    31    19    20    1
    32    19    21   ar
    33    21    22    1
    34    28    29   ar
    35    29    30   ar
    36    30    34    1
    37    34    35    1
    38    30    31   ar
    39    31    26   ar
    40    12     2   ar
    41    21    15   ar
    42    10     4   ar
    43    24    25    1
@<TRIPOS>MOLECULE
*****
 40 43 0 0 0
SMALL
GASTEIGER

@<TRIPOS>ATOM
      1 C         139.6689  140.7498  164.4206 C.3     1  UNL1        0.0798
      2 C         140.0542  140.6512  165.8670 C.ar    1  UNL1        0.0374
      3 C         141.2647  141.3789  166.3719 C.ar    1  UNL1        0.0023
      4 C         141.6500  141.2804  167.8183 C.ar    1  UNL1        0.0181
      5 C         142.8606  142.0081  168.3232 C.ar    1  UNL1        0.0082
      6 C         143.2458  141.9095  169.7695 C.ar    1  UNL1        0.0347
      7 BR        144.4564  142.6372  170.2745 Br      1  UNL1       -0.0490
      8 C         142.4205  141.0833  170.7109 C.ar    1  UNL1        0.0082
      9 C         141.2100  140.3556  170.2059 C.ar    1  UNL1        0.0197
     10 C         140.8247  140.4541  168.7596 C.ar    1  UNL1        0.0844
     11 N         139.6141  139.7264  168.2547 N.ar    1  UNL1       -0.2119
     12 C         139.2289  139.8250  166.8084 C.ar    1  UNL1        0.2211
     13 O         138.0183  139.0973  166.3034 O.3     1  UNL1       -0.4563
     14 C         137.3656  138.0475  167.1530 C.3     1  UNL1        0.2542
     15 C         139.3116  142.0809  163.8286 C.ar    1  UNL1        0.0115
     16 C         137.8827  142.3957  163.4986 C.ar    1  UNL1       -0.0017
     17 C         137.5254  143.7269  162.9066 C.ar    1  UNL1       -0.0005
     18 C         138.5971  144.7432  162.6447 C.ar    1  UNL1       -0.0021
     19 C         140.0261  144.4283  162.9747 C.ar    1  UNL1        0.0053
     20 C         141.0978  145.4445  162.7127 C.3     1  UNL1        0.0334
     21 C         140.3833  143.0971  163.5667 C.ar    1  UNL1        0.1325
     22 F         141.8123  142.7822  163.8967 F       1  UNL1       -0.2048
     23 C         139.6408  139.5171  163.5663 C.3     1  UNL1        0.1162
     24 O         138.1472  139.4631  163.6933 O.3     1  UNL1       -0.3820
     25 H         137.8082  138.6999  163.1998 H       1  UNL1        0.2107
     26 C         143.4941  139.0503  164.3938 C.ar    1  UNL1        0.2272
     27 C         142.0004  138.9963  164.5207 C.ar    1  UNL1        0.0559
     28 C         141.1345  139.5712  163.4393 C.ar    1  UNL1        0.0117
     29 C         141.7622  140.2002  162.2309 C.ar    1  UNL1        0.0559
     30 C         143.2558  140.2542  162.1039 C.ar    1  UNL1        0.2272
     31 N         144.1218  139.6793  163.1853 N.ar    1  UNL1       -0.1767
     32 C         143.7525  138.0659  166.7842 C.3     1  UNL1        0.2542
     33 O         144.3600  138.4754  165.4753 O.3     1  UNL1       -0.4561
     34 O         143.8835  140.8833  160.8954 O.3     1  UNL1       -0.4561
     35 C         144.2555  142.3363  160.9140 C.3     1  UNL1        0.2542
     36 C         139.6128  138.2845  162.7120 C.3     1  UNL1        0.0491
     37 C         138.6086  138.1622  161.6045 C.3     1  UNL1        0.0750
     38 N         138.6905  139.0711  160.4140 N.3     1  UNL1       -0.2702
     39 C         137.7721  140.2523  160.3076 C.3     1  UNL1        0.0897
     40 C         139.6909  138.7989  159.3300 C.3     1  UNL1        0.0897
@<TRIPOS>BOND
     1    32    33    1
     2    33    26    1
     3    26    27   ar
     4    27    28   ar
     5    28    23    1
     6    23    24    1
     7    23    36    1
     8    36    37    1
     9    37    38    1
    10    38    39    1
    11    38    40    1
    12    23     1    1
    13     1     2    1
    14     2     3   ar
    15     3     4   ar
    16     4     5   ar
    17     5     6   ar
    18     6     7    1
    19     6     8   ar
    20     8     9   ar
    21     9    10   ar
    22    10    11   ar
    23    11    12   ar
    24    12    13    1
    25    13    14    1
    26     1    15    1
    27    15    16   ar
    28    16    17   ar
    29    17    18   ar
    30    18    19   ar
    31    19    20    1
    32    19    21   ar
    33    21    22    1
    34    28    29   ar
    35    29    30   ar
    36    30    34    1
    37    34    35    1
    38    30    31   ar
    39    31    26   ar
    40    12     2   ar
    41    21    15   ar
    42    10     4   ar
    43    24    25    1
@<TRIPOS>MOLECULE
*****
 40 43 0 0 0
SMALL
GASTEIGER

@<TRIPOS>ATOM
      1 C         139.7023  140.7610  164.4236 C.3     1  UNL1        0.0798
      2 C         140.0675  140.6816  165.8764 C.ar    1  UNL1        0.0374
      3 C         141.2907  141.3873  166.3818 C.ar    1  UNL1        0.0023
      4 C         141.6560  141.3079  167.8346 C.ar    1  UNL1        0.0181
      5 C         142.8792  142.0136  168.3401 C.ar    1  UNL1        0.0082
      6 C         143.2444  141.9341  169.7927 C.ar    1  UNL1        0.0347
      7 BR        144.4677  142.6398  170.2983 Br      1  UNL1       -0.0490
      8 C         142.3863  141.1490  170.7399 C.ar    1  UNL1        0.0082
      9 C         141.1630  140.4433  170.2345 C.ar    1  UNL1        0.0197
     10 C         140.7978  140.5227  168.7818 C.ar    1  UNL1        0.0844
     11 N         139.5745  139.8170  168.2763 N.ar    1  UNL1       -0.2119
     12 C         139.2094  139.8964  166.8236 C.ar    1  UNL1        0.2211
     13 O         137.9860  139.1907  166.3180 O.3     1  UNL1       -0.4563
     14 C         137.6862  137.7923  166.7703 C.3     1  UNL1        0.2542
     15 C         139.3328  142.0809  163.8142 C.ar    1  UNL1        0.0115
     16 C         137.9061  142.3650  163.4485 C.ar    1  UNL1       -0.0017
     17 C         137.5367  143.6849  162.8391 C.ar    1  UNL1       -0.0005
     18 C         138.5940  144.7207  162.5954 C.ar    1  UNL1       -0.0021
     19 C         140.0207  144.4365  162.9612 C.ar    1  UNL1        0.0053
     20 C         141.0780  145.4723  162.7175 C.3     1  UNL1        0.0334
     21 C         140.3901  143.1166  163.5706 C.ar    1  UNL1        0.1325
     22 F         141.8168  142.8324  163.9364 F       1  UNL1       -0.2048
     23 C         139.7065  139.5205  163.5804 C.3     1  UNL1        0.1162
     24 O         138.2146  139.4295  163.7066 O.3     1  UNL1       -0.3820
     25 H         137.8956  138.6536  163.2197 H       1  UNL1        0.2107
     26 C         143.3026  140.3635  162.1287 C.ar    1  UNL1        0.2272
     27 C         141.8107  140.2725  162.2549 C.ar    1  UNL1        0.0559
     28 C         141.1984  139.6114  163.4541 C.ar    1  UNL1        0.0117
     29 C         142.0780  139.0413  164.5270 C.ar    1  UNL1        0.0559
     30 C         143.5699  139.1322  164.4007 C.ar    1  UNL1        0.2272
     31 N         144.1822  139.7933  163.2015 N.ar    1  UNL1       -0.1767
     32 C         144.5292  142.3872  161.0562 C.3     1  UNL1        0.2542
     33 O         143.9148  141.0246  160.9294 O.3     1  UNL1       -0.4561
     34 O         144.4496  138.5620  165.4737 O.3     1  UNL1       -0.4561
     35 C         143.8372  137.9343  166.6906 C.3     1  UNL1        0.2542
     36 C         139.7108  138.2800  162.7371 C.3     1  UNL1        0.0491
     37 C         138.6844  138.1034  161.6576 C.3     1  UNL1        0.0750
     38 N         138.6994  138.9993  160.4546 N.3     1  UNL1       -0.2702
     39 C         137.6362  140.0435  160.2838 C.3     1  UNL1        0.0897
     40 C         139.7777  138.8511  159.4225 C.3     1  UNL1        0.0897
@<TRIPOS>BOND
     1    32    33    1
     2    33    26    1
     3    26    27   ar
     4    27    28   ar
     5    28    23    1
     6    23    24    1
     7    23    36    1
     8    36    37    1
     9    37    38    1
    10    38    39    1
    11    38    40    1
    12    23     1    1
    13     1     2    1
    14     2     3   ar
    15     3     4   ar
    16     4     5   ar
    17     5     6   ar
    18     6     7    1
    19     6     8   ar
    20     8     9   ar
    21     9    10   ar
    22    10    11   ar
    23    11    12   ar
    24    12    13    1
    25    13    14    1
    26     1    15    1
    27    15    16   ar
    28    16    17   ar
    29    17    18   ar
    30    18    19   ar
    31    19    20    1
    32    19    21   ar
    33    21    22    1
    34    28    29   ar
    35    29    30   ar
    36    30    34    1
    37    34    35    1
    38    30    31   ar
    39    31    26   ar
    40    12     2   ar
    41    21    15   ar
    42    10     4   ar
    43    24    25    1
@<TRIPOS>MOLECULE
*****
 40 43 0 0 0
SMALL
GASTEIGER

@<TRIPOS>ATOM
      1 C         141.3555  141.0129  162.6888 C.3     1  UNL1        0.0798
      2 C         141.3708  140.7256  164.1610 C.ar    1  UNL1        0.0374
      3 C         141.0115  141.8042  165.1394 C.ar    1  UNL1        0.0023
      4 C         141.0269  141.5169  166.6116 C.ar    1  UNL1        0.0181
      5 C         140.6676  142.5955  167.5901 C.ar    1  UNL1        0.0082
      6 C         140.6830  142.3081  169.0622 C.ar    1  UNL1        0.0347
      7 BR        140.3237  143.3868  170.0407 Br      1  UNL1       -0.0490
      8 C         141.0575  140.9421  169.5558 C.ar    1  UNL1        0.0082
      9 C         141.4168  139.8635  168.5774 C.ar    1  UNL1        0.0197
     10 C         141.4015  140.1509  167.1053 C.ar    1  UNL1        0.0844
     11 N         141.7607  139.0722  166.1267 N.ar    1  UNL1       -0.2119
     12 C         141.7454  139.3596  164.6546 C.ar    1  UNL1        0.2211
     13 O         142.1046  138.2809  163.6761 O.3     1  UNL1       -0.4563
     14 C         141.1153  137.2004  163.3543 C.3     1  UNL1        0.2542
     15 C         140.2520  140.4699  161.8301 C.ar    1  UNL1        0.0115
     16 C         138.8204  140.6983  162.2152 C.ar    1  UNL1       -0.0017
     17 C         137.7169  140.1552  161.3565 C.ar    1  UNL1       -0.0005
     18 C         138.0450  139.3837  160.1126 C.ar    1  UNL1       -0.0021
     19 C         139.4766  139.1553  159.7275 C.ar    1  UNL1        0.0053
     20 C         139.8048  138.3838  158.4837 C.3     1  UNL1        0.0334
     21 C         140.5801  139.6984  160.5863 C.ar    1  UNL1        0.1325
     22 F         142.0117  139.4700  160.2011 F       1  UNL1       -0.2048
     23 C         142.4436  141.8433  162.0754 C.3     1  UNL1        0.1162
     24 O         143.4538  140.8028  162.4587 O.3     1  UNL1       -0.3820
     25 H         144.3349  141.0848  162.1673 H       1  UNL1        0.2107
     26 C         139.6400  144.6365  162.3713 C.ar    1  UNL1        0.2272
     27 C         140.6501  143.5960  162.7546 C.ar    1  UNL1        0.0559
     28 C         141.4335  142.8839  161.6920 C.ar    1  UNL1        0.0117
     29 C         141.2068  143.2122  160.2461 C.ar    1  UNL1        0.0559
     30 C         140.1966  144.2528  159.8628 C.ar    1  UNL1        0.2272
     31 N         139.4132  144.9649  160.9254 N.ar    1  UNL1       -0.1767
     32 C         138.8751  144.8422  164.8457 C.3     1  UNL1        0.2542
     33 O         138.8566  145.3487  163.4339 O.3     1  UNL1       -0.4561
     34 O         139.9699  144.5811  158.4168 O.3     1  UNL1       -0.4561
     35 C         139.3852  143.5510  157.4965 C.3     1  UNL1        0.2542
     36 C         143.5318  142.6738  161.4619 C.3     1  UNL1        0.0491
     37 C         144.6233  143.2351  162.3242 C.3     1  UNL1        0.0750
     38 N         144.3011  143.7722  163.6871 N.3     1  UNL1       -0.2702
     39 C         144.6053  142.9540  164.9069 C.3     1  UNL1        0.0897
     40 C         143.6747  145.1276  163.8303 C.3     1  UNL1        0.0897
@<TRIPOS>BOND
     1    32    33    1
     2    33    26    1
     3    26    27   ar
     4    27    28   ar
     5    28    23    1
     6    23    24    1
     7    23    36    1
     8    36    37    1
     9    37    38    1
    10    38    39    1
    11    38    40    1
    12    23     1    1
    13     1     2    1
    14     2     3   ar
    15     3     4   ar
    16     4     5   ar
    17     5     6   ar
    18     6     7    1
    19     6     8   ar
    20     8     9   ar
    21     9    10   ar
    22    10    11   ar
    23    11    12   ar
    24    12    13    1
    25    13    14    1
    26     1    15    1
    27    15    16   ar
    28    16    17   ar
    29    17    18   ar
    30    18    19   ar
    31    19    20    1
    32    19    21   ar
    33    21    22    1
    34    28    29   ar
    35    29    30   ar
    36    30    34    1
    37    34    35    1
    38    30    31   ar
    39    31    26   ar
    40    12     2   ar
    41    21    15   ar
    42    10     4   ar
    43    24    25    1
@<TRIPOS>MOLECULE
*****
 40 43 0 0 0
SMALL
GASTEIGER

@<TRIPOS>ATOM
      1 C         141.5375  142.1279  162.6030 C.3     1  UNL1        0.0798
      2 C         141.9646  142.1705  164.0403 C.ar    1  UNL1        0.0374
      3 C         140.9716  141.8815  165.1268 C.ar    1  UNL1        0.0023
      4 C         141.3988  141.9241  166.5641 C.ar    1  UNL1        0.0181
      5 C         140.4058  141.6352  167.6505 C.ar    1  UNL1        0.0082
      6 C         140.8330  141.6778  169.0877 C.ar    1  UNL1        0.0347
      7 BR        139.8400  141.3889  170.1743 Br      1  UNL1       -0.0490
      8 C         142.2532  142.0093  169.4385 C.ar    1  UNL1        0.0082
      9 C         143.2463  142.2982  168.3521 C.ar    1  UNL1        0.0197
     10 C         142.8191  142.2556  166.9149 C.ar    1  UNL1        0.0844
     11 N         143.8121  142.5446  165.8283 N.ar    1  UNL1       -0.2119
     12 C         143.3849  142.5020  164.3911 C.ar    1  UNL1        0.2211
     13 O         144.3779  142.7909  163.3046 O.3     1  UNL1       -0.4563
     14 C         145.5834  141.9140  163.1377 C.3     1  UNL1        0.2542
     15 C         142.3447  141.3541  161.6033 C.ar    1  UNL1        0.0115
     16 C         142.7829  142.0074  160.3261 C.ar    1  UNL1       -0.0017
     17 C         143.5902  141.2336  159.3264 C.ar    1  UNL1       -0.0005
     18 C         143.9593  139.8064  159.6038 C.ar    1  UNL1       -0.0021
     19 C         143.5211  139.1531  160.8810 C.ar    1  UNL1        0.0053
     20 C         143.8902  137.7259  161.1584 C.3     1  UNL1        0.0334
     21 C         142.7138  139.9270  161.8807 C.ar    1  UNL1        0.1325
     22 F         142.2756  139.2736  163.1579 F       1  UNL1       -0.2048
     23 C         140.3030  142.8591  162.1656 C.3     1  UNL1        0.1162
     24 O         140.9382  144.1621  162.5510 O.3     1  UNL1       -0.3820
     25 H         140.3225  144.8888  162.3674 H       1  UNL1        0.2107
     26 C         138.7495  139.2177  162.4425 C.ar    1  UNL1        0.2272
     27 C         139.3848  140.5207  162.8279 C.ar    1  UNL1        0.0559
     28 C         139.6677  141.5561  161.7801 C.ar    1  UNL1        0.0117
     29 C         139.3155  141.2884  160.3469 C.ar    1  UNL1        0.0559
     30 C         138.6802  139.9853  159.9614 C.ar    1  UNL1        0.2272
     31 N         138.3973  138.9500  161.0092 N.ar    1  UNL1       -0.1767
     32 C         138.8878  138.4180  164.9106 C.3     1  UNL1        0.2542
     33 O         138.4665  138.1823  163.4904 O.3     1  UNL1       -0.4561
     34 O         138.3280  139.7177  158.5281 O.3     1  UNL1       -0.4561
     35 C         138.0210  140.8598  157.6054 C.3     1  UNL1        0.2542
     36 C         139.0685  143.5903  161.7281 C.3     1  UNL1        0.0491
     37 C         138.3427  144.4806  162.6927 C.3     1  UNL1        0.0750
     38 N         138.2046  144.0744  164.1300 N.3     1  UNL1       -0.2702
     39 C         138.8230  144.9128  165.2091 C.3     1  UNL1        0.0897
     40 C         137.4480  142.8297  164.4882 C.3     1  UNL1        0.0897
@<TRIPOS>BOND
     1    32    33    1
     2    33    26    1
     3    26    27   ar
     4    27    28   ar
     5    28    23    1
     6    23    24    1
     7    23    36    1
     8    36    37    1
     9    37    38    1
    10    38    39    1
    11    38    40    1
    12    23     1    1
    13     1     2    1
    14     2     3   ar
    15     3     4   ar
    16     4     5   ar
    17     5     6   ar
    18     6     7    1
    19     6     8   ar
    20     8     9   ar
    21     9    10   ar
    22    10    11   ar
    23    11    12   ar
    24    12    13    1
    25    13    14    1
    26     1    15    1
    27    15    16   ar
    28    16    17   ar
    29    17    18   ar
    30    18    19   ar
    31    19    20    1
    32    19    21   ar
    33    21    22    1
    34    28    29   ar
    35    29    30   ar
    36    30    34    1
    37    34    35    1
    38    30    31   ar
    39    31    26   ar
    40    12     2   ar
    41    21    15   ar
    42    10     4   ar
    43    24    25    1
@<TRIPOS>MOLECULE
*****
 40 43 0 0 0
SMALL
GASTEIGER

@<TRIPOS>ATOM
      1 C         142.1922  141.1690  163.6508 C.3     1  UNL1        0.0798
      2 C         142.4510  141.4905  165.0929 C.ar    1  UNL1        0.0374
      3 C         141.6630  140.8023  166.1678 C.ar    1  UNL1        0.0023
      4 C         141.9218  141.1238  167.6100 C.ar    1  UNL1        0.0181
      5 C         141.1338  140.4357  168.6849 C.ar    1  UNL1        0.0082
      6 C         141.3926  140.7572  170.1270 C.ar    1  UNL1        0.0347
      7 BR        140.6046  140.0690  171.2020 Br      1  UNL1       -0.0490
      8 C         142.4394  141.7668  170.4941 C.ar    1  UNL1        0.0082
      9 C         143.2274  142.4550  169.4192 C.ar    1  UNL1        0.0197
     10 C         142.9686  142.1335  167.9772 C.ar    1  UNL1        0.0844
     11 N         143.7566  142.8217  166.9022 N.ar    1  UNL1       -0.2119
     12 C         143.4978  142.5002  165.4601 C.ar    1  UNL1        0.2211
     13 O         144.2858  143.1883  164.3851 O.3     1  UNL1       -0.4563
     14 C         143.9351  144.5888  163.9780 C.3     1  UNL1        0.2542
     15 C         141.4057  142.1212  162.7995 C.ar    1  UNL1        0.0115
     16 C         142.0116  142.6847  161.5484 C.ar    1  UNL1       -0.0017
     17 C         141.2251  143.6369  160.6972 C.ar    1  UNL1       -0.0005
     18 C         139.8326  144.0257  161.0971 C.ar    1  UNL1       -0.0021
     19 C         139.2267  143.4622  162.3482 C.ar    1  UNL1        0.0053
     20 C         137.8342  143.8509  162.7481 C.3     1  UNL1        0.0334
     21 C         140.0133  142.5099  163.1994 C.ar    1  UNL1        0.1325
     22 F         139.4073  141.9464  164.4506 F       1  UNL1       -0.2048
     23 C         142.7200  139.8953  163.0599 C.3     1  UNL1        0.1162
     24 O         144.1180  140.4306  163.1548 O.3     1  UNL1       -0.3820
     25 H         144.7411  139.7694  162.8150 H       1  UNL1        0.2107
     26 C         139.2659  138.2276  164.0785 C.ar    1  UNL1        0.2272
     27 C         140.6639  138.7629  164.1734 C.ar    1  UNL1        0.0559
     28 C         141.3220  139.3600  162.9650 C.ar    1  UNL1        0.0117
     29 C         140.5820  139.4219  161.6617 C.ar    1  UNL1        0.0559
     30 C         139.1840  138.8867  161.5669 C.ar    1  UNL1        0.2272
     31 N         138.5259  138.2895  162.7753 N.ar    1  UNL1       -0.1767
     32 C         138.1397  138.5182  166.4018 C.3     1  UNL1        0.2542
     33 O         138.6078  137.6304  165.2870 O.3     1  UNL1       -0.4561
     34 O         138.4440  138.9486  160.2635 O.3     1  UNL1       -0.4561
     35 C         137.3009  139.9050  160.0948 C.3     1  UNL1        0.2542
     36 C         143.2478  138.6216  162.4691 C.3     1  UNL1        0.0491
     37 C         144.1672  138.6686  161.2849 C.3     1  UNL1        0.0750
     38 N         143.6058  138.8540  159.9063 N.3     1  UNL1       -0.2702
     39 C         143.8113  140.1507  159.1809 C.3     1  UNL1        0.0897
     40 C         142.8388  137.7427  159.2531 C.3     1  UNL1        0.0897
@<TRIPOS>BOND
     1    32    33    1
     2    33    26    1
     3    26    27   ar
     4    27    28   ar
     5    28    23    1
     6    23    24    1
     7    23    36    1
     8    36    37    1
     9    37    38    1
    10    38    39    1
    11    38    40    1
    12    23     1    1
    13     1     2    1
    14     2     3   ar
    15     3     4   ar
    16     4     5   ar
    17     5     6   ar
    18     6     7    1
    19     6     8   ar
    20     8     9   ar
    21     9    10   ar
    22    10    11   ar
    23    11    12   ar
    24    12    13    1
    25    13    14    1
    26     1    15    1
    27    15    16   ar
    28    16    17   ar
    29    17    18   ar
    30    18    19   ar
    31    19    20    1
    32    19    21   ar
    33    21    22    1
    34    28    29   ar
    35    29    30   ar
    36    30    34    1
    37    34    35    1
    38    30    31   ar
    39    31    26   ar
    40    12     2   ar
    41    21    15   ar
    42    10     4   ar
    43    24    25    1
