@<TRIPOS>MOLECULE
*****
 30 32 0 0 0
SMALL
GASTEIGER

@<TRIPOS>ATOM
      1 N         138.8013  138.0468  164.1085 N.pl3   1  UNL1       -0.2820
      2 H         138.7928  137.0693  163.9915 H       1  UNL1        0.1551
      3 C         139.2078  139.8165  168.2259 C.ar    1  UNL1        0.1081
      4 C         137.9246  139.1563  167.8166 C.ar    1  UNL1        0.1080
      5 N         137.7891  138.5664  166.4441 N.ar    1  UNL1       -0.2287
      6 C         138.9368  138.6367  165.4810 C.ar    1  UNL1        0.1345
      7 C         140.2200  139.2968  165.8903 C.ar    1  UNL1        0.0492
      8 C         140.3555  139.8867  167.2627 C.ar    1  UNL1        0.0585
      9 N         141.6388  140.5469  167.6720 N.pl3   1  UNL1       -0.3038
     10 C         141.9260  141.9563  167.2467 C.3     1  UNL1        0.1122
     11 C         142.6348  139.7975  168.5065 C.3     1  UNL1        0.1122
     12 C         139.3433  140.4064  169.5984 C.2     1  UNL1        0.3441
     13 O         139.2957  139.5168  170.8051 O.2     1  UNL1       -0.2448
     14 C         140.5523  142.4119  170.7236 C.3     1  UNL1        0.2560
     15 O         139.5263  141.8859  169.7641 O.3     1  UNL1       -0.4413
     16 C         138.6788  138.9461  162.9143 C.ar    1  UNL1        0.1558
     17 C         139.0886  138.4525  161.5584 C.ar    1  UNL1        0.1342
     18 N         138.9661  139.3518  160.3642 N.ar    1  UNL1       -0.2263
     19 C         138.4339  140.7449  160.5259 C.ar    1  UNL1        0.2025
     20 C         138.0241  141.2386  161.8818 C.ar    1  UNL1        0.2543
     21 N         138.1466  140.3392  163.0760 N.ar    1  UNL1       -0.1931
     22 C         138.3114  141.6443  159.3317 C.1     1  UNL1        0.1246
     23 N         138.1889  142.5436  158.1375 N.1     1  UNL1       -0.1891
     24 O         137.4919  142.6316  162.0434 O.3     1  UNL1       -0.4610
     25 C         138.1496  143.5792  163.0024 C.3     1  UNL1        0.1846
     26 C         137.8463  143.7041  164.4661 C.3     1  UNL1        0.0621
     27 C         138.7353  144.7703  165.0343 C.3     1  UNL1        0.0724
     28 N         139.5881  145.3043  163.9218 N.3     1  UNL1       -0.2944
     29 C         139.2261  144.5682  162.6660 C.3     1  UNL1        0.1127
     30 H         140.5735  145.1550  164.1387 H       1  UNL1        0.1234
@<TRIPOS>BOND
     1    14    15    1
     2    15    12    1
     3    12    13    2
     4    12     3    1
     5     3     4   ar
     6     4     5   ar
     7     5     6   ar
     8     6     1    1
     9     1    16    1
    10    16    17   ar
    11    17    18   ar
    12    18    19   ar
    13    19    22    1
    14    22    23    3
    15    19    20   ar
    16    20    24    1
    17    25    24    1
    18    25    26    1
    19    26    27    1
    20    27    28    1
    21    28    29    1
    22    20    21   ar
    23     6     7   ar
    24     7     8   ar
    25     8     9    1
    26     9    10    1
    27     9    11    1
    28     8     3   ar
    29    21    16   ar
    30    29    25    1
    31     1     2    1
    32    28    30    1
@<TRIPOS>MOLECULE
*****
 30 32 0 0 0
SMALL
GASTEIGER

@<TRIPOS>ATOM
      1 N         139.6757  144.2530  164.5417 N.pl3   1  UNL1       -0.2820
      2 H         139.5730  144.9808  165.1966 H       1  UNL1        0.1551
      3 C         138.6340  140.0287  165.6908 C.ar    1  UNL1        0.1081
      4 C         138.0069  140.6528  164.4795 C.ar    1  UNL1        0.1080
      5 N         138.3541  142.0609  164.0965 N.ar    1  UNL1       -0.2287
      6 C         139.3285  142.8449  164.9247 C.ar    1  UNL1        0.1345
      7 C         139.9555  142.2208  166.1360 C.ar    1  UNL1        0.0492
      8 C         139.6083  140.8127  166.5190 C.ar    1  UNL1        0.0585
      9 N         140.2354  140.1886  167.7304 N.pl3   1  UNL1       -0.3038
     10 C         139.4998  140.1840  169.0376 C.3     1  UNL1        0.1122
     11 C         141.5982  139.5692  167.6344 C.3     1  UNL1        0.1122
     12 C         138.2868  138.6206  166.0739 C.2     1  UNL1        0.3441
     13 O         137.2189  138.3628  167.0952 O.2     1  UNL1       -0.2448
     14 C         140.2456  137.7174  164.6257 C.3     1  UNL1        0.2560
     15 O         139.0073  137.4703  165.4355 O.3     1  UNL1       -0.4413
     16 C         140.1794  144.5521  163.1608 C.ar    1  UNL1        0.1558
     17 C         139.3382  145.3548  162.2131 C.ar    1  UNL1        0.1342
     18 N         139.8419  145.6539  160.8323 N.ar    1  UNL1       -0.2263
     19 C         141.1868  145.1503  160.3991 C.ar    1  UNL1        0.2025
     20 C         142.0280  144.3477  161.3467 C.ar    1  UNL1        0.2543
     21 N         141.5243  144.0485  162.7276 N.ar    1  UNL1       -0.1931
     22 C         141.6905  145.4495  159.0181 C.1     1  UNL1        0.1246
     23 N         142.1942  145.7486  157.6373 N.1     1  UNL1       -0.1891
     24 O         143.3729  143.8441  160.9135 O.3     1  UNL1       -0.4610
     25 C         144.0009  142.6793  161.6200 C.3     1  UNL1        0.1846
     26 C         144.8308  142.7481  162.8676 C.3     1  UNL1        0.0621
     27 C         145.2519  141.3526  163.2216 C.3     1  UNL1        0.0724
     28 N         144.6823  140.4214  162.1928 N.3     1  UNL1       -0.2944
     29 C         143.9091  141.2414  161.2030 C.3     1  UNL1        0.1127
     30 H         144.0632  139.7464  162.6418 H       1  UNL1        0.1234
@<TRIPOS>BOND
     1    14    15    1
     2    15    12    1
     3    12    13    2
     4    12     3    1
     5     3     4   ar
     6     4     5   ar
     7     5     6   ar
     8     6     1    1
     9     1    16    1
    10    16    17   ar
    11    17    18   ar
    12    18    19   ar
    13    19    22    1
    14    22    23    3
    15    19    20   ar
    16    20    24    1
    17    25    24    1
    18    25    26    1
    19    26    27    1
    20    27    28    1
    21    28    29    1
    22    20    21   ar
    23     6     7   ar
    24     7     8   ar
    25     8     9    1
    26     9    10    1
    27     9    11    1
    28     8     3   ar
    29    21    16   ar
    30    29    25    1
    31     1     2    1
    32    28    30    1
@<TRIPOS>MOLECULE
*****
 30 32 0 0 0
SMALL
GASTEIGER

@<TRIPOS>ATOM
      1 N         138.7565  143.1472  164.7071 N.pl3   1  UNL1       -0.2820
      2 H         137.8359  143.4439  164.8907 H       1  UNL1        0.1551
      3 C         140.8957  140.4984  167.6495 C.ar    1  UNL1        0.1081
      4 C         140.0378  139.8910  166.5794 C.ar    1  UNL1        0.1080
      5 N         139.3247  140.7740  165.5986 N.ar    1  UNL1       -0.2287
      6 C         139.4695  142.2643  165.6879 C.ar    1  UNL1        0.1345
      7 C         140.3274  142.8716  166.7580 C.ar    1  UNL1        0.0492
      8 C         141.0405  141.9887  167.7388 C.ar    1  UNL1        0.0585
      9 N         141.8984  142.5961  168.8089 N.pl3   1  UNL1       -0.3038
     10 C         143.3898  142.4476  168.7488 C.3     1  UNL1        0.1122
     11 C         141.2649  143.3520  169.9390 C.3     1  UNL1        0.1122
     12 C         141.6087  139.6155  168.6303 C.2     1  UNL1        0.3441
     13 O         141.0020  139.3452  169.9752 O.2     1  UNL1       -0.2448
     14 C         143.2868  138.7951  166.8245 C.3     1  UNL1        0.2560
     15 O         142.9285  139.0027  168.2662 O.3     1  UNL1       -0.4413
     16 C         139.4460  143.5780  163.4466 C.ar    1  UNL1        0.1558
     17 C         138.6722  143.6795  162.1655 C.ar    1  UNL1        0.1342
     18 N         139.3618  144.1104  160.9050 N.ar    1  UNL1       -0.2263
     19 C         140.8250  144.4397  160.9255 C.ar    1  UNL1        0.2025
     20 C         141.5987  144.3382  162.2065 C.ar    1  UNL1        0.2543
     21 N         140.9092  143.9074  163.4671 N.ar    1  UNL1       -0.1931
     22 C         141.5145  144.8705  159.6649 C.1     1  UNL1        0.1246
     23 N         142.2041  145.3014  158.4045 N.1     1  UNL1       -0.1891
     24 O         143.0620  144.6676  162.2270 O.3     1  UNL1       -0.4610
     25 C         144.0620  143.6168  162.6092 C.3     1  UNL1        0.1846
     26 C         144.4164  143.2037  164.0069 C.3     1  UNL1        0.0621
     27 C         145.4566  142.1263  163.9222 C.3     1  UNL1        0.0724
     28 N         145.7450  141.8734  162.4720 N.3     1  UNL1       -0.2944
     29 C         144.8831  142.7946  161.6606 C.3     1  UNL1        0.1127
     30 H         145.5294  140.9038  162.2402 H       1  UNL1        0.1234
@<TRIPOS>BOND
     1    14    15    1
     2    15    12    1
     3    12    13    2
     4    12     3    1
     5     3     4   ar
     6     4     5   ar
     7     5     6   ar
     8     6     1    1
     9     1    16    1
    10    16    17   ar
    11    17    18   ar
    12    18    19   ar
    13    19    22    1
    14    22    23    3
    15    19    20   ar
    16    20    24    1
    17    25    24    1
    18    25    26    1
    19    26    27    1
    20    27    28    1
    21    28    29    1
    22    20    21   ar
    23     6     7   ar
    24     7     8   ar
    25     8     9    1
    26     9    10    1
    27     9    11    1
    28     8     3   ar
    29    21    16   ar
    30    29    25    1
    31     1     2    1
    32    28    30    1
@<TRIPOS>MOLECULE
*****
 30 32 0 0 0
SMALL
GASTEIGER

@<TRIPOS>ATOM
      1 N         140.2288  143.7794  164.4951 N.pl3   1  UNL1       -0.2820
      2 H         140.1475  144.7551  164.5980 H       1  UNL1        0.1551
      3 C         142.1779  141.3304  167.7282 C.ar    1  UNL1        0.1081
      4 C         142.8956  141.5697  166.4330 C.ar    1  UNL1        0.1080
      5 N         142.2459  142.3861  165.3553 N.ar    1  UNL1       -0.2287
      6 C         140.8785  142.9630  165.5728 C.ar    1  UNL1        0.1345
      7 C         140.1608  142.7237  166.8680 C.ar    1  UNL1        0.0492
      8 C         140.8105  141.9073  167.9457 C.ar    1  UNL1        0.0585
      9 N         140.0928  141.6680  169.2410 N.pl3   1  UNL1       -0.3038
     10 C         139.3061  140.4066  169.4406 C.3     1  UNL1        0.1122
     11 C         140.1618  142.6901  170.3367 C.3     1  UNL1        0.1122
     12 C         142.8276  140.5140  168.8059 C.2     1  UNL1        0.3441
     13 O         142.8916  139.0207  168.6801 O.2     1  UNL1       -0.2448
     14 C         144.0264  142.5538  169.8793 C.3     1  UNL1        0.2560
     15 O         143.4134  141.1910  170.0095 O.3     1  UNL1       -0.4413
     16 C         139.7029  143.1091  163.2605 C.ar    1  UNL1        0.1558
     17 C         139.4497  143.9138  162.0202 C.ar    1  UNL1        0.1342
     18 N         138.9238  143.2436  160.7857 N.ar    1  UNL1       -0.2263
     19 C         138.6511  141.7686  160.7913 C.ar    1  UNL1        0.2025
     20 C         138.9043  140.9638  162.0316 C.ar    1  UNL1        0.2543
     21 N         139.4302  141.6341  163.2662 N.ar    1  UNL1       -0.1931
     22 C         138.1252  141.0983  159.5567 C.1     1  UNL1        0.1246
     23 N         137.5994  140.4281  158.3221 N.1     1  UNL1       -0.1891
     24 O         138.6317  139.4889  162.0373 O.3     1  UNL1       -0.4610
     25 C         139.6958  138.5312  162.4853 C.3     1  UNL1        0.1846
     26 C         139.8383  137.9525  163.8618 C.3     1  UNL1        0.0621
     27 C         141.0347  137.0477  163.8626 C.3     1  UNL1        0.0724
     28 N         141.6316  137.0672  162.4866 N.3     1  UNL1       -0.2944
     29 C         140.8041  137.9840  161.6354 C.3     1  UNL1        0.1127
     30 H         141.6228  136.1266  162.0921 H       1  UNL1        0.1234
@<TRIPOS>BOND
     1    14    15    1
     2    15    12    1
     3    12    13    2
     4    12     3    1
     5     3     4   ar
     6     4     5   ar
     7     5     6   ar
     8     6     1    1
     9     1    16    1
    10    16    17   ar
    11    17    18   ar
    12    18    19   ar
    13    19    22    1
    14    22    23    3
    15    19    20   ar
    16    20    24    1
    17    25    24    1
    18    25    26    1
    19    26    27    1
    20    27    28    1
    21    28    29    1
    22    20    21   ar
    23     6     7   ar
    24     7     8   ar
    25     8     9    1
    26     9    10    1
    27     9    11    1
    28     8     3   ar
    29    21    16   ar
    30    29    25    1
    31     1     2    1
    32    28    30    1
@<TRIPOS>MOLECULE
*****
 30 32 0 0 0
SMALL
GASTEIGER

@<TRIPOS>ATOM
      1 N         142.5173  138.7372  164.8616 N.pl3   1  UNL1       -0.2820
      2 H         143.4115  138.3280  164.9083 H       1  UNL1        0.1551
      3 C         140.5647  140.3100  168.5983 C.ar    1  UNL1        0.1081
      4 C         139.7226  139.9129  167.4223 C.ar    1  UNL1        0.1080
      5 N         140.3735  139.3886  166.1767 N.ar    1  UNL1       -0.2287
      6 C         141.8665  139.2615  166.1072 C.ar    1  UNL1        0.1345
      7 C         142.7085  139.6587  167.2832 C.ar    1  UNL1        0.0492
      8 C         142.0576  140.1829  168.5288 C.ar    1  UNL1        0.0585
      9 N         142.8998  140.5801  169.7049 N.pl3   1  UNL1       -0.3038
     10 C         143.0934  139.6252  170.8454 C.3     1  UNL1        0.1122
     11 C         143.5483  141.9322  169.7405 C.3     1  UNL1        0.1122
     12 C         139.9138  140.8343  169.8439 C.2     1  UNL1        0.3441
     13 O         139.2129  139.8923  170.7774 O.2     1  UNL1       -0.2448
     14 C         140.2947  143.2867  169.0753 C.3     1  UNL1        0.2560
     15 O         139.9638  142.3006  170.1561 O.3     1  UNL1       -0.4413
     16 C         141.8059  138.8365  163.5448 C.ar    1  UNL1        0.1558
     17 C         141.3266  137.5933  162.8557 C.ar    1  UNL1        0.1342
     18 N         140.6151  137.6926  161.5389 N.ar    1  UNL1       -0.2263
     19 C         140.3829  139.0350  160.9112 C.ar    1  UNL1        0.2025
     20 C         140.8621  140.2781  161.6003 C.ar    1  UNL1        0.2543
     21 N         141.5736  140.1789  162.9171 N.ar    1  UNL1       -0.1931
     22 C         139.6714  139.1342  159.5944 C.1     1  UNL1        0.1246
     23 N         138.9598  139.2334  158.2777 N.1     1  UNL1       -0.1891
     24 O         140.6299  141.6205  160.9726 O.3     1  UNL1       -0.4610
     25 C         139.6070  142.5524  161.5518 C.3     1  UNL1        0.1846
     26 C         139.8904  143.7485  162.4115 C.3     1  UNL1        0.0621
     27 C         138.5797  144.3871  162.7639 C.3     1  UNL1        0.0724
     28 N         137.4862  143.5857  162.1220 N.3     1  UNL1       -0.2944
     29 C         138.1211  142.4518  161.3729 C.3     1  UNL1        0.1127
     30 H         136.9586  144.1742  161.4772 H       1  UNL1        0.1234
@<TRIPOS>BOND
     1    14    15    1
     2    15    12    1
     3    12    13    2
     4    12     3    1
     5     3     4   ar
     6     4     5   ar
     7     5     6   ar
     8     6     1    1
     9     1    16    1
    10    16    17   ar
    11    17    18   ar
    12    18    19   ar
    13    19    22    1
    14    22    23    3
    15    19    20   ar
    16    20    24    1
    17    25    24    1
    18    25    26    1
    19    26    27    1
    20    27    28    1
    21    28    29    1
    22    20    21   ar
    23     6     7   ar
    24     7     8   ar
    25     8     9    1
    26     9    10    1
    27     9    11    1
    28     8     3   ar
    29    21    16   ar
    30    29    25    1
    31     1     2    1
    32    28    30    1
@<TRIPOS>MOLECULE
*****
 30 32 0 0 0
SMALL
GASTEIGER

@<TRIPOS>ATOM
      1 N         138.7479  137.6023  164.0443 N.pl3   1  UNL1       -0.2820
      2 H         138.0123  136.9550  163.9483 H       1  UNL1        0.1551
      3 C         139.3173  139.8011  167.9290 C.ar    1  UNL1        0.1081
      4 C         137.9878  139.1885  167.6018 C.ar    1  UNL1        0.1080
      5 N         137.7980  138.4556  166.3069 N.ar    1  UNL1       -0.2287
      6 C         138.9377  138.3353  165.3392 C.ar    1  UNL1        0.1345
      7 C         140.2672  138.9478  165.6664 C.ar    1  UNL1        0.0492
      8 C         140.4570  139.6808  166.9613 C.ar    1  UNL1        0.0585
      9 N         141.7866  140.2934  167.2884 N.pl3   1  UNL1       -0.3038
     10 C         142.2056  141.5732  166.6279 C.3     1  UNL1        0.1122
     11 C         142.6972  139.6260  168.2761 C.3     1  UNL1        0.1122
     12 C         139.5071  140.5340  169.2239 C.2     1  UNL1        0.3441
     13 O         139.3198  139.8152  170.5270 O.2     1  UNL1       -0.2448
     14 C         140.9256  142.4956  170.1673 C.3     1  UNL1        0.2560
     15 O         139.8842  141.9858  169.2157 O.3     1  UNL1       -0.4413
     16 C         139.6787  137.8557  162.8957 C.ar    1  UNL1        0.1558
     17 C         139.1255  138.1349  161.5295 C.ar    1  UNL1        0.1342
     18 N         140.0563  138.3882  160.3809 N.ar    1  UNL1       -0.2263
     19 C         141.5403  138.3624  160.5983 C.ar    1  UNL1        0.2025
     20 C         142.0934  138.0831  161.9643 C.ar    1  UNL1        0.2543
     21 N         141.1626  137.8298  163.1130 N.ar    1  UNL1       -0.1931
     22 C         142.4711  138.6157  159.4496 C.1     1  UNL1        0.1246
     23 N         143.4019  138.8691  158.3010 N.1     1  UNL1       -0.1891
     24 O         143.5774  138.0573  162.1817 O.3     1  UNL1       -0.4610
     25 C         144.2908  139.2968  162.6342 C.3     1  UNL1        0.1846
     26 C         144.8576  139.5383  164.0018 C.3     1  UNL1        0.0621
     27 C         145.4798  140.9031  164.0113 C.3     1  UNL1        0.0724
     28 N         145.2975  141.5052  162.6496 N.3     1  UNL1       -0.2944
     29 C         144.5626  140.5124  161.7985 C.3     1  UNL1        0.1127
     30 H         146.2076  141.7088  162.2364 H       1  UNL1        0.1234
@<TRIPOS>BOND
     1    14    15    1
     2    15    12    1
     3    12    13    2
     4    12     3    1
     5     3     4   ar
     6     4     5   ar
     7     5     6   ar
     8     6     1    1
     9     1    16    1
    10    16    17   ar
    11    17    18   ar
    12    18    19   ar
    13    19    22    1
    14    22    23    3
    15    19    20   ar
    16    20    24    1
    17    25    24    1
    18    25    26    1
    19    26    27    1
    20    27    28    1
    21    28    29    1
    22    20    21   ar
    23     6     7   ar
    24     7     8   ar
    25     8     9    1
    26     9    10    1
    27     9    11    1
    28     8     3   ar
    29    21    16   ar
    30    29    25    1
    31     1     2    1
    32    28    30    1
@<TRIPOS>MOLECULE
*****
 30 32 0 0 0
SMALL
GASTEIGER

@<TRIPOS>ATOM
      1 N         138.4639  143.8701  164.1239 N.pl3   1  UNL1       -0.2820
      2 H         137.5659  144.2399  164.2856 H       1  UNL1        0.1551
      3 C         140.2748  140.9897  167.0691 C.ar    1  UNL1        0.1081
      4 C         140.6731  142.4356  167.0923 C.ar    1  UNL1        0.1080
      5 N         140.0695  143.3958  166.1106 N.ar    1  UNL1       -0.2287
      6 C         139.0676  142.9100  165.1056 C.ar    1  UNL1        0.1345
      7 C         138.6693  141.4641  165.0823 C.ar    1  UNL1        0.0492
      8 C         139.2729  140.5039  166.0641 C.ar    1  UNL1        0.0585
      9 N         138.8745  139.0579  166.0407 N.pl3   1  UNL1       -0.3038
     10 C         139.6124  138.0908  165.1633 C.3     1  UNL1        0.1122
     11 C         137.7382  138.5792  166.8949 C.3     1  UNL1        0.1122
     12 C         140.8784  140.0296  168.0508 C.2     1  UNL1        0.3441
     13 O         142.2272  139.4308  167.7818 O.2     1  UNL1       -0.2448
     14 C         140.1858  140.5759  170.4945 C.3     1  UNL1        0.2560
     15 O         140.1334  139.6682  169.3014 O.3     1  UNL1       -0.4413
     16 C         139.2285  144.2670  162.8960 C.ar    1  UNL1        0.1558
     17 C         138.9143  145.5590  162.2017 C.ar    1  UNL1        0.1342
     18 N         139.6788  145.9558  160.9737 N.ar    1  UNL1       -0.2263
     19 C         140.7576  145.0607  160.4400 C.ar    1  UNL1        0.2025
     20 C         141.0719  143.7687  161.1342 C.ar    1  UNL1        0.2543
     21 N         140.3073  143.3718  162.3622 N.ar    1  UNL1       -0.1931
     22 C         141.5222  145.4576  159.2119 C.1     1  UNL1        0.1246
     23 N         142.2867  145.8544  157.9840 N.1     1  UNL1       -0.1891
     24 O         142.1507  142.8735  160.6004 O.3     1  UNL1       -0.4610
     25 C         143.3886  142.6256  161.4105 C.3     1  UNL1        0.1846
     26 C         143.4501  142.4687  162.9010 C.3     1  UNL1        0.0621
     27 C         144.8818  142.2371  163.2840 C.3     1  UNL1        0.0724
     28 N         145.7051  142.2509  162.0301 N.3     1  UNL1       -0.2944
     29 C         144.7822  142.4910  160.8723 C.3     1  UNL1        0.1127
     30 H         146.1773  141.3540  161.9162 H       1  UNL1        0.1234
@<TRIPOS>BOND
     1    14    15    1
     2    15    12    1
     3    12    13    2
     4    12     3    1
     5     3     4   ar
     6     4     5   ar
     7     5     6   ar
     8     6     1    1
     9     1    16    1
    10    16    17   ar
    11    17    18   ar
    12    18    19   ar
    13    19    22    1
    14    22    23    3
    15    19    20   ar
    16    20    24    1
    17    25    24    1
    18    25    26    1
    19    26    27    1
    20    27    28    1
    21    28    29    1
    22    20    21   ar
    23     6     7   ar
    24     7     8   ar
    25     8     9    1
    26     9    10    1
    27     9    11    1
    28     8     3   ar
    29    21    16   ar
    30    29    25    1
    31     1     2    1
    32    28    30    1
@<TRIPOS>MOLECULE
*****
 30 32 0 0 0
SMALL
GASTEIGER

@<TRIPOS>ATOM
      1 N         142.2073  139.0402  164.6914 N.pl3   1  UNL1       -0.2820
      2 H         142.5090  138.1112  164.5677 H       1  UNL1        0.1551
      3 C         140.4623  140.3330  168.6327 C.ar    1  UNL1        0.1081
      4 C         139.5558  139.9560  167.4986 C.ar    1  UNL1        0.1080
      5 N         140.1375  139.5250  166.1849 N.ar    1  UNL1       -0.2287
      6 C         141.6257  139.4711  166.0052 C.ar    1  UNL1        0.1345
      7 C         142.5321  139.8481  167.1392 C.ar    1  UNL1        0.0492
      8 C         141.9505  140.2791  168.4529 C.ar    1  UNL1        0.0585
      9 N         142.8570  140.6561  169.5870 N.pl3   1  UNL1       -0.3038
     10 C         143.0627  139.7070  170.7302 C.3     1  UNL1        0.1122
     11 C         143.5579  141.9823  169.5778 C.3     1  UNL1        0.1122
     12 C         139.8806  140.7640  169.9464 C.2     1  UNL1        0.3441
     13 O         139.3617  139.7378  170.9096 O.2     1  UNL1       -0.2448
     14 C         140.2446  143.2526  169.2951 C.3     1  UNL1        0.2560
     15 O         139.8177  142.2210  170.2969 O.3     1  UNL1       -0.4413
     16 C         142.3294  140.0245  163.5663 C.ar    1  UNL1        0.1558
     17 C         143.5588  140.0325  162.7068 C.ar    1  UNL1        0.1342
     18 N         143.6809  141.0169  161.5816 N.ar    1  UNL1       -0.2263
     19 C         142.5737  141.9933  161.3158 C.ar    1  UNL1        0.2025
     20 C         141.3443  141.9853  162.1752 C.ar    1  UNL1        0.2543
     21 N         141.2222  141.0009  163.3005 N.ar    1  UNL1       -0.1931
     22 C         142.6958  142.9777  160.1906 C.1     1  UNL1        0.1246
     23 N         142.8180  143.9620  159.0654 N.1     1  UNL1       -0.1891
     24 O         140.2371  142.9617  161.9094 O.3     1  UNL1       -0.4610
     25 C         139.5419  143.6372  163.0543 C.3     1  UNL1        0.1846
     26 C         138.1576  143.3354  163.5470 C.3     1  UNL1        0.0621
     27 C         137.8691  144.2447  164.7045 C.3     1  UNL1        0.0724
     28 N         139.0751  145.1084  164.9273 N.3     1  UNL1       -0.2944
     29 C         140.1089  144.7330  163.9074 C.3     1  UNL1        0.1127
     30 H         139.4429  144.9539  165.8661 H       1  UNL1        0.1234
@<TRIPOS>BOND
     1    14    15    1
     2    15    12    1
     3    12    13    2
     4    12     3    1
     5     3     4   ar
     6     4     5   ar
     7     5     6   ar
     8     6     1    1
     9     1    16    1
    10    16    17   ar
    11    17    18   ar
    12    18    19   ar
    13    19    22    1
    14    22    23    3
    15    19    20   ar
    16    20    24    1
    17    25    24    1
    18    25    26    1
    19    26    27    1
    20    27    28    1
    21    28    29    1
    22    20    21   ar
    23     6     7   ar
    24     7     8   ar
    25     8     9    1
    26     9    10    1
    27     9    11    1
    28     8     3   ar
    29    21    16   ar
    30    29    25    1
    31     1     2    1
    32    28    30    1
@<TRIPOS>MOLECULE
*****
 30 32 0 0 0
SMALL
GASTEIGER

@<TRIPOS>ATOM
      1 N         138.0738  143.5539  163.7406 N.pl3   1  UNL1       -0.2820
      2 H         137.1281  143.8126  163.8293 H       1  UNL1        0.1551
      3 C         139.9933  140.9396  166.8600 C.ar    1  UNL1        0.1081
      4 C         140.3471  142.3950  166.7802 C.ar    1  UNL1        0.1080
      5 N         139.7072  143.2665  165.7404 N.ar    1  UNL1       -0.2287
      6 C         138.7136  142.6825  164.7804 C.ar    1  UNL1        0.1345
      7 C         138.3599  141.2270  164.8602 C.ar    1  UNL1        0.0492
      8 C         138.9997  140.3556  165.9000 C.ar    1  UNL1        0.0585
      9 N         138.6459  138.9000  165.9797 N.pl3   1  UNL1       -0.3038
     10 C         139.3251  137.9126  165.0778 C.3     1  UNL1        0.1122
     11 C         137.6129  138.4320  166.9614 C.3     1  UNL1        0.1122
     12 C         140.6332  140.0681  167.8997 C.2     1  UNL1        0.3441
     13 O         142.0239  139.5472  167.6893 O.2     1  UNL1       -0.2448
     14 C         139.2936  140.8037  170.0008 C.3     1  UNL1        0.2560
     15 O         139.8822  139.7176  169.1500 O.3     1  UNL1       -0.4413
     16 C         138.8749  144.0312  162.5657 C.ar    1  UNL1        0.1558
     17 C         139.4558  145.4143  162.5661 C.ar    1  UNL1        0.1342
     18 N         140.2569  145.8916  161.3912 N.ar    1  UNL1       -0.2263
     19 C         140.4772  144.9859  160.2159 C.ar    1  UNL1        0.2025
     20 C         139.8963  143.6030  160.2155 C.ar    1  UNL1        0.2543
     21 N         139.0952  143.1256  161.3904 N.ar    1  UNL1       -0.1931
     22 C         141.2783  145.4633  159.0410 C.1     1  UNL1        0.1246
     23 N         142.0795  145.9407  157.8662 N.1     1  UNL1       -0.1891
     24 O         140.1166  142.6973  159.0402 O.3     1  UNL1       -0.4610
     25 C         138.9441  142.0661  158.3497 C.3     1  UNL1        0.1846
     26 C         138.1084  142.6977  157.2760 C.3     1  UNL1        0.0621
     27 C         137.0492  141.7144  156.8744 C.3     1  UNL1        0.0724
     28 N         137.2303  140.4750  157.6998 N.3     1  UNL1       -0.2944
     29 C         138.4014  140.6924  158.6116 C.3     1  UNL1        0.1127
     30 H         137.4093  139.6766  157.0908 H       1  UNL1        0.1234
@<TRIPOS>BOND
     1    14    15    1
     2    15    12    1
     3    12    13    2
     4    12     3    1
     5     3     4   ar
     6     4     5   ar
     7     5     6   ar
     8     6     1    1
     9     1    16    1
    10    16    17   ar
    11    17    18   ar
    12    18    19   ar
    13    19    22    1
    14    22    23    3
    15    19    20   ar
    16    20    24    1
    17    25    24    1
    18    25    26    1
    19    26    27    1
    20    27    28    1
    21    28    29    1
    22    20    21   ar
    23     6     7   ar
    24     7     8   ar
    25     8     9    1
    26     9    10    1
    27     9    11    1
    28     8     3   ar
    29    21    16   ar
    30    29    25    1
    31     1     2    1
    32    28    30    1
