@<TRIPOS>MOLECULE
*****
 37 41 0 0 0
SMALL
GASTEIGER

@<TRIPOS>ATOM
      1 C         143.0935  138.8069  160.7927 C.3     1  UNL1        0.1565
      2 O         142.7678  137.4186  161.2580 O.3     1  UNL1       -0.3781
      3 C         143.1486  140.0233  159.9168 C.3     1  UNL1        0.0372
      4 C         143.8698  141.2525  160.3847 C.3     1  UNL1        0.0186
      5 C         144.5360  141.2652  161.7287 C.3     1  UNL1        0.0544
      6 C         144.4809  140.0488  162.6046 C.3     1  UNL1        0.0186
      7 C         143.7597  138.8196  162.1366 C.3     1  UNL1        0.0372
      8 H         142.2502  136.9622  160.5763 H       1  UNL1        0.2109
      9 N         143.0179  138.0154  158.3192 N.am    1  UNL1       -0.2808
     10 C         142.3143  138.3121  159.6104 C.2     1  UNL1        0.2502
     11 O         140.8314  138.1139  159.7191 O.2     1  UNL1       -0.2723
     12 H         143.9912  138.1454  158.2478 H       1  UNL1        0.1550
     13 C         143.3226  133.7034  157.0686 C.ar    1  UNL1        0.2251
     14 C         142.5434  133.2086  155.8863 C.ar    1  UNL1        0.0593
     15 C         141.6626  134.1510  155.1209 C.ar    1  UNL1        0.0255
     16 C         141.5610  135.5883  155.5377 C.ar    1  UNL1        0.1004
     17 N         140.6802  136.5308  154.7723 N.ar    1  UNL1       -0.2422
     18 C         140.5786  137.9681  155.1891 C.ar    1  UNL1        0.1002
     19 C         141.3578  138.4630  156.3715 C.ar    1  UNL1        0.0369
     20 C         142.2387  137.5205  157.1369 C.ar    1  UNL1        0.0714
     21 C         142.3402  136.0832  156.7200 C.ar    1  UNL1        0.1154
     22 N         143.2211  135.1407  157.4855 N.ar    1  UNL1       -0.2089
     23 C         145.2149  131.9236  157.1090 C.3     1  UNL1        0.2542
     24 O         144.2035  132.7609  157.8341 O.3     1  UNL1       -0.4561
     25 N         145.2572  142.4944  162.1966 N.3     1  UNL1       -0.2935
     26 H         145.5676  142.9897  161.3608 H       1  UNL1        0.1236
     27 C         144.5482  143.4981  163.0567 C.3     1  UNL1        0.1152
     28 C         143.0991  143.8015  162.8163 C.ar    1  UNL1        0.0782
     29 C         142.0754  143.4404  163.8515 C.ar    1  UNL1        0.0562
     30 C         140.6262  143.7438  163.6111 C.ar    1  UNL1        0.1752
     31 C         140.2007  144.4082  162.3353 C.ar    1  UNL1        0.1914
     32 C         141.2243  144.7693  161.3001 C.ar    1  UNL1        0.1384
     33 N         142.6736  144.4660  161.5405 N.ar    1  UNL1       -0.2434
     34 O         138.7514  144.7116  162.0949 O.3     1  UNL1       -0.4668
     35 C         137.7279  144.3505  163.1301 C.3     1  UNL1        0.2527
     36 C         138.1533  143.6860  164.4059 C.3     1  UNL1        0.2526
     37 O         139.6025  143.3827  164.6463 O.3     1  UNL1       -0.4683
@<TRIPOS>BOND
     1    23    24    1
     2    24    13    1
     3    13    14   ar
     4    14    15   ar
     5    15    16   ar
     6    16    17   ar
     7    17    18   ar
     8    18    19   ar
     9    19    20   ar
    10    20     9    1
    11     9    10   am
    12    10    11    2
    13    10     1    1
    14     1     2    1
    15     1     3    1
    16     3     4    1
    17     4     5    1
    18     5    25    1
    19    25    27    1
    20    27    28    1
    21    28    29   ar
    22    29    30   ar
    23    30    31   ar
    24    31    32   ar
    25    32    33   ar
    26    31    34    1
    27    34    35    1
    28    35    36    1
    29    36    37    1
    30     5     6    1
    31     6     7    1
    32    20    21   ar
    33    21    22   ar
    34    22    13   ar
    35    21    16   ar
    36     7     1    1
    37    33    28   ar
    38    37    30    1
    39     9    12    1
    40     2     8    1
    41    25    26    1
@<TRIPOS>MOLECULE
*****
 37 41 0 0 0
SMALL
GASTEIGER

@<TRIPOS>ATOM
      1 C         143.4005  143.9208  162.1575 C.3     1  UNL1        0.1565
      2 O         144.8781  144.1478  162.2802 O.3     1  UNL1       -0.3781
      3 C         142.0959  143.3601  161.6741 C.3     1  UNL1        0.0372
      4 C         140.8062  143.8391  162.2717 C.3     1  UNL1        0.0186
      5 C         140.8211  144.8789  163.3528 C.3     1  UNL1        0.0544
      6 C         142.1257  145.4397  163.8362 C.3     1  UNL1        0.0186
      7 C         143.4154  144.9606  163.2385 C.3     1  UNL1        0.0372
      8 H         145.3463  143.5774  161.6506 H       1  UNL1        0.2109
      9 N         143.3617  143.0227  159.7198 N.am    1  UNL1       -0.2808
     10 C         143.8987  142.9599  161.1191 C.2     1  UNL1        0.2502
     11 O         144.9340  141.9361  161.4798 O.2     1  UNL1       -0.2723
     12 H         142.6822  143.6946  159.4831 H       1  UNL1        0.1550
     13 C         141.2144  139.1260  159.0454 C.ar    1  UNL1        0.2251
     14 C         141.7127  138.1651  158.0071 C.ar    1  UNL1        0.0593
     15 C         142.9267  138.5030  157.1934 C.ar    1  UNL1        0.0255
     16 C         143.6425  139.8019  157.4182 C.ar    1  UNL1        0.1004
     17 N         144.8565  140.1398  156.6046 N.ar    1  UNL1       -0.2422
     18 C         145.5722  141.4387  156.8294 C.ar    1  UNL1        0.1002
     19 C         145.0740  142.3997  157.8678 C.ar    1  UNL1        0.0369
     20 C         143.8600  142.0618  158.6814 C.ar    1  UNL1        0.0714
     21 C         143.1442  140.7628  158.4566 C.ar    1  UNL1        0.1154
     22 N         141.9302  140.4249  159.2702 N.ar    1  UNL1       -0.2089
     23 C         138.7082  139.5090  159.6131 C.3     1  UNL1        0.2542
     24 O         140.0004  138.7881  159.8591 O.3     1  UNL1       -0.4561
     25 N         139.5314  145.3580  163.9505 N.3     1  UNL1       -0.2935
     26 H         138.9565  145.6954  163.1784 H       1  UNL1        0.1236
     27 C         138.6779  144.4156  164.7462 C.3     1  UNL1        0.1152
     28 C         138.5442  142.9835  164.3207 C.ar    1  UNL1        0.0782
     29 C         139.3676  141.9225  164.9888 C.ar    1  UNL1        0.0562
     30 C         139.2339  140.4904  164.5633 C.ar    1  UNL1        0.1752
     31 C         138.2767  140.1192  163.4696 C.ar    1  UNL1        0.1914
     32 C         137.4533  141.1801  162.8016 C.ar    1  UNL1        0.1384
     33 N         137.5870  142.6123  163.2271 N.ar    1  UNL1       -0.2434
     34 O         138.1430  138.6870  163.0441 O.3     1  UNL1       -0.4668
     35 C         138.9664  137.6261  163.7122 C.3     1  UNL1        0.2527
     36 C         139.9236  137.9973  164.8059 C.3     1  UNL1        0.2526
     37 O         140.0573  139.4294  165.2314 O.3     1  UNL1       -0.4683
@<TRIPOS>BOND
     1    23    24    1
     2    24    13    1
     3    13    14   ar
     4    14    15   ar
     5    15    16   ar
     6    16    17   ar
     7    17    18   ar
     8    18    19   ar
     9    19    20   ar
    10    20     9    1
    11     9    10   am
    12    10    11    2
    13    10     1    1
    14     1     2    1
    15     1     3    1
    16     3     4    1
    17     4     5    1
    18     5    25    1
    19    25    27    1
    20    27    28    1
    21    28    29   ar
    22    29    30   ar
    23    30    31   ar
    24    31    32   ar
    25    32    33   ar
    26    31    34    1
    27    34    35    1
    28    35    36    1
    29    36    37    1
    30     5     6    1
    31     6     7    1
    32    20    21   ar
    33    21    22   ar
    34    22    13   ar
    35    21    16   ar
    36     7     1    1
    37    33    28   ar
    38    37    30    1
    39     9    12    1
    40     2     8    1
    41    25    26    1
@<TRIPOS>MOLECULE
*****
 37 41 0 0 0
SMALL
GASTEIGER

@<TRIPOS>ATOM
      1 C         141.8872  144.6671  161.5459 C.3     1  UNL1        0.1565
      2 O         141.0475  145.7713  162.1168 O.3     1  UNL1       -0.3781
      3 C         142.3911  143.6334  160.5829 C.3     1  UNL1        0.0372
      4 C         143.5699  142.7804  160.9473 C.3     1  UNL1        0.0186
      5 C         144.2447  142.9610  162.2748 C.3     1  UNL1        0.0544
      6 C         143.7407  143.9948  163.2377 C.3     1  UNL1        0.0186
      7 C         142.5620  144.8478  162.8734 C.3     1  UNL1        0.0372
      8 H         140.3585  146.0162  161.4794 H       1  UNL1        0.2109
      9 N         141.2750  144.4078  159.0343 N.am    1  UNL1       -0.2808
     10 C         140.9208  144.8699  160.4168 C.2     1  UNL1        0.2502
     11 O         139.6002  145.5347  160.6700 O.2     1  UNL1       -0.2723
     12 H         142.1417  143.9715  158.8681 H       1  UNL1        0.1550
     13 C         138.2562  141.2173  158.0561 C.ar    1  UNL1        0.2251
     14 C         137.2899  141.4200  156.9269 C.ar    1  UNL1        0.0593
     15 C         137.3297  142.6863  156.1239 C.ar    1  UNL1        0.0255
     16 C         138.3360  143.7498  156.4499 C.ar    1  UNL1        0.1004
     17 N         138.3759  145.0161  155.6468 N.ar    1  UNL1       -0.2422
     18 C         139.3821  146.0796  155.9729 C.ar    1  UNL1        0.1002
     19 C         140.3485  145.8769  157.1021 C.ar    1  UNL1        0.0369
     20 C         140.3087  144.6106  157.9052 C.ar    1  UNL1        0.0714
     21 C         139.3023  143.5471  157.5791 C.ar    1  UNL1        0.1154
     22 N         139.2624  142.2808  158.3821 N.ar    1  UNL1       -0.2089
     23 C         137.7254  139.9767  160.2763 C.3     1  UNL1        0.2542
     24 O         138.2163  139.9510  158.8591 O.3     1  UNL1       -0.4561
     25 N         145.4234  142.1080  162.6391 N.3     1  UNL1       -0.2935
     26 H         146.0639  142.7008  163.1671 H       1  UNL1        0.1236
     27 C         145.2247  140.8592  163.4459 C.3     1  UNL1        0.1152
     28 C         144.0264  139.9908  163.2011 C.ar    1  UNL1        0.0782
     29 C         142.7543  140.2375  163.9568 C.ar    1  UNL1        0.0562
     30 C         141.5560  139.3691  163.7120 C.ar    1  UNL1        0.1752
     31 C         141.6299  138.2539  162.7114 C.ar    1  UNL1        0.1914
     32 C         142.9018  138.0072  161.9558 C.ar    1  UNL1        0.1384
     33 N         144.1002  138.8756  162.2006 N.ar    1  UNL1       -0.2434
     34 O         140.4315  137.3855  162.4666 O.3     1  UNL1       -0.4668
     35 C         139.1595  137.6322  163.2223 C.3     1  UNL1        0.2527
     36 C         139.0857  138.7474  164.2228 C.3     1  UNL1        0.2526
     37 O         140.2840  139.6157  164.4676 O.3     1  UNL1       -0.4683
@<TRIPOS>BOND
     1    23    24    1
     2    24    13    1
     3    13    14   ar
     4    14    15   ar
     5    15    16   ar
     6    16    17   ar
     7    17    18   ar
     8    18    19   ar
     9    19    20   ar
    10    20     9    1
    11     9    10   am
    12    10    11    2
    13    10     1    1
    14     1     2    1
    15     1     3    1
    16     3     4    1
    17     4     5    1
    18     5    25    1
    19    25    27    1
    20    27    28    1
    21    28    29   ar
    22    29    30   ar
    23    30    31   ar
    24    31    32   ar
    25    32    33   ar
    26    31    34    1
    27    34    35    1
    28    35    36    1
    29    36    37    1
    30     5     6    1
    31     6     7    1
    32    20    21   ar
    33    21    22   ar
    34    22    13   ar
    35    21    16   ar
    36     7     1    1
    37    33    28   ar
    38    37    30    1
    39     9    12    1
    40     2     8    1
    41    25    26    1
@<TRIPOS>MOLECULE
*****
 37 41 0 0 0
SMALL
GASTEIGER

@<TRIPOS>ATOM
      1 C         138.4995  139.2382  162.9666 C.3     1  UNL1        0.1565
      2 O         138.6258  138.2862  161.8143 O.3     1  UNL1       -0.3781
      3 C         138.2836  140.5158  163.7223 C.3     1  UNL1        0.0372
      4 C         138.3695  140.5252  165.2198 C.3     1  UNL1        0.0186
      5 C         138.6715  139.2568  165.9616 C.3     1  UNL1        0.0544
      6 C         138.8874  137.9792  165.2059 C.3     1  UNL1        0.0186
      7 C         138.8014  137.9699  163.7084 C.3     1  UNL1        0.0372
      8 H         138.4797  138.7639  160.9828 H       1  UNL1        0.2109
      9 N         139.1234  140.1412  160.6117 N.am    1  UNL1       -0.2808
     10 C         138.2415  140.1759  161.8246 C.2     1  UNL1        0.2502
     11 O         137.1016  141.1483  161.8955 O.2     1  UNL1       -0.2723
     12 H         139.8715  139.5030  160.5651 H       1  UNL1        0.1550
     13 C         141.4346  143.9892  160.2938 C.ar    1  UNL1        0.2251
     14 C         141.1766  144.9269  159.1518 C.ar    1  UNL1        0.0593
     15 C         140.1481  144.5819  158.1158 C.ar    1  UNL1        0.0255
     16 C         139.3777  143.2993  158.2218 C.ar    1  UNL1        0.1004
     17 N         138.3493  142.9543  157.1858 N.ar    1  UNL1       -0.2422
     18 C         137.5789  141.6717  157.2917 C.ar    1  UNL1        0.1002
     19 C         137.8369  140.7339  158.4337 C.ar    1  UNL1        0.0369
     20 C         138.8653  141.0789  159.4697 C.ar    1  UNL1        0.0714
     21 C         139.6358  142.3616  159.3637 C.ar    1  UNL1        0.1154
     22 N         140.6642  142.7065  160.3997 N.ar    1  UNL1       -0.2089
     23 C         142.2626  143.9122  162.7552 C.3     1  UNL1        0.2542
     24 O         142.4631  144.3341  161.3298 O.3     1  UNL1       -0.4561
     25 N         138.7574  139.2662  167.4591 N.3     1  UNL1       -0.2935
     26 H         138.7183  138.2931  167.7623 H       1  UNL1        0.1236
     27 C         139.9435  139.8840  168.1384 C.3     1  UNL1        0.1152
     28 C         141.0769  140.4284  167.3206 C.ar    1  UNL1        0.0782
     29 C         141.9819  139.4923  166.5759 C.ar    1  UNL1        0.0562
     30 C         143.1154  140.0367  165.7581 C.ar    1  UNL1        0.1752
     31 C         143.3438  141.5175  165.6849 C.ar    1  UNL1        0.1914
     32 C         142.4388  142.4536  166.4295 C.ar    1  UNL1        0.1384
     33 N         141.3053  141.9092  167.2474 N.ar    1  UNL1       -0.2434
     34 O         144.4773  142.0619  164.8671 O.3     1  UNL1       -0.4668
     35 C         145.3822  141.1258  164.1225 C.3     1  UNL1        0.2527
     36 C         145.1538  139.6450  164.1956 C.3     1  UNL1        0.2526
     37 O         144.0204  139.1006  165.0134 O.3     1  UNL1       -0.4683
@<TRIPOS>BOND
     1    23    24    1
     2    24    13    1
     3    13    14   ar
     4    14    15   ar
     5    15    16   ar
     6    16    17   ar
     7    17    18   ar
     8    18    19   ar
     9    19    20   ar
    10    20     9    1
    11     9    10   am
    12    10    11    2
    13    10     1    1
    14     1     2    1
    15     1     3    1
    16     3     4    1
    17     4     5    1
    18     5    25    1
    19    25    27    1
    20    27    28    1
    21    28    29   ar
    22    29    30   ar
    23    30    31   ar
    24    31    32   ar
    25    32    33   ar
    26    31    34    1
    27    34    35    1
    28    35    36    1
    29    36    37    1
    30     5     6    1
    31     6     7    1
    32    20    21   ar
    33    21    22   ar
    34    22    13   ar
    35    21    16   ar
    36     7     1    1
    37    33    28   ar
    38    37    30    1
    39     9    12    1
    40     2     8    1
    41    25    26    1
@<TRIPOS>MOLECULE
*****
 37 41 0 0 0
SMALL
GASTEIGER

@<TRIPOS>ATOM
      1 C         140.2321  138.4018  160.5797 C.3     1  UNL1        0.1565
      2 O         138.7754  138.7050  160.7705 O.3     1  UNL1       -0.3781
      3 C         141.6638  138.0995  160.9093 C.3     1  UNL1        0.0372
      4 C         142.6612  137.9002  159.8068 C.3     1  UNL1        0.0186
      5 C         142.2268  138.0031  158.3748 C.3     1  UNL1        0.0544
      6 C         140.7951  138.3055  158.0452 C.3     1  UNL1        0.0186
      7 C         139.7977  138.5048  159.1476 C.3     1  UNL1        0.0372
      8 H         138.5737  138.7392  161.7187 H       1  UNL1        0.2109
      9 N         139.7422  139.6466  162.8070 N.am    1  UNL1       -0.2808
     10 C         140.1606  138.4041  162.0779 C.2     1  UNL1        0.2502
     11 O         140.5074  137.1640  162.8473 O.2     1  UNL1       -0.2723
     12 H         139.5146  140.4605  162.3021 H       1  UNL1        0.1550
     13 C         143.1081  141.4103  165.2174 C.ar    1  UNL1        0.2251
     14 C         143.0366  141.4125  166.7157 C.ar    1  UNL1        0.0593
     15 C         141.8432  140.8269  167.4105 C.ar    1  UNL1        0.0255
     16 C         140.7212  140.2390  166.6070 C.ar    1  UNL1        0.1004
     17 N         139.5278  139.6534  167.3019 N.ar    1  UNL1       -0.2422
     18 C         138.4058  139.0655  166.4984 C.ar    1  UNL1        0.1002
     19 C         138.4773  139.0632  165.0001 C.ar    1  UNL1        0.0369
     20 C         139.6707  139.6489  164.3052 C.ar    1  UNL1        0.0714
     21 C         140.7927  140.2368  165.1088 C.ar    1  UNL1        0.1154
     22 N         141.9862  140.8224  164.4140 N.ar    1  UNL1       -0.2089
     23 C         145.3014  141.0944  163.8611 C.3     1  UNL1        0.2542
     24 O         144.3016  141.9959  164.5226 O.3     1  UNL1       -0.4561
     25 N         143.2243  137.8038  157.2723 N.3     1  UNL1       -0.2935
     26 H         144.0399  137.3564  157.6906 H       1  UNL1        0.1236
     27 C         142.8564  136.9922  156.0658 C.3     1  UNL1        0.1152
     28 C         142.7815  135.4971  156.1618 C.ar    1  UNL1        0.0782
     29 C         143.8118  134.7436  156.9496 C.ar    1  UNL1        0.0562
     30 C         143.7370  133.2486  157.0456 C.ar    1  UNL1        0.1752
     31 C         142.6317  132.5070  156.3537 C.ar    1  UNL1        0.1914
     32 C         141.6015  133.2605  155.5659 C.ar    1  UNL1        0.1384
     33 N         141.6763  134.7556  155.4699 N.ar    1  UNL1       -0.2434
     34 O         142.5569  131.0119  156.4497 O.3     1  UNL1       -0.4668
     35 C         143.5872  130.2585  157.2375 C.3     1  UNL1        0.2527
     36 C         144.6924  131.0000  157.9294 C.3     1  UNL1        0.2526
     37 O         144.7673  132.4950  157.8333 O.3     1  UNL1       -0.4683
@<TRIPOS>BOND
     1    23    24    1
     2    24    13    1
     3    13    14   ar
     4    14    15   ar
     5    15    16   ar
     6    16    17   ar
     7    17    18   ar
     8    18    19   ar
     9    19    20   ar
    10    20     9    1
    11     9    10   am
    12    10    11    2
    13    10     1    1
    14     1     2    1
    15     1     3    1
    16     3     4    1
    17     4     5    1
    18     5    25    1
    19    25    27    1
    20    27    28    1
    21    28    29   ar
    22    29    30   ar
    23    30    31   ar
    24    31    32   ar
    25    32    33   ar
    26    31    34    1
    27    34    35    1
    28    35    36    1
    29    36    37    1
    30     5     6    1
    31     6     7    1
    32    20    21   ar
    33    21    22   ar
    34    22    13   ar
    35    21    16   ar
    36     7     1    1
    37    33    28   ar
    38    37    30    1
    39     9    12    1
    40     2     8    1
    41    25    26    1
@<TRIPOS>MOLECULE
*****
 37 41 0 0 0
SMALL
GASTEIGER

@<TRIPOS>ATOM
      1 C         141.3884  137.8598  161.8941 C.3     1  UNL1        0.1565
      2 O         142.8484  137.7562  161.5659 O.3     1  UNL1       -0.3781
      3 C         139.9143  138.0693  161.7124 C.3     1  UNL1        0.0372
      4 C         138.9880  137.9381  162.8849 C.3     1  UNL1        0.0186
      5 C         139.5359  137.5974  164.2391 C.3     1  UNL1        0.0544
      6 C         141.0100  137.3879  164.4208 C.3     1  UNL1        0.0186
      7 C         141.9363  137.5191  163.2483 C.3     1  UNL1        0.0372
      8 H         142.9809  137.9336  160.6215 H       1  UNL1        0.2109
      9 N         142.6191  138.1951  159.6306 N.am    1  UNL1       -0.2808
     10 C         141.3476  138.1645  160.4260 C.2     1  UNL1        0.2502
     11 O         140.0353  138.4386  159.7531 O.2     1  UNL1       -0.2723
     12 H         143.4804  138.0152  160.0723 H       1  UNL1        0.1550
     13 C         143.1384  134.8822  156.6299 C.ar    1  UNL1        0.2251
     14 C         143.0975  135.1869  155.1618 C.ar    1  UNL1        0.0593
     15 C         142.8836  136.5959  154.6939 C.ar    1  UNL1        0.0255
     16 C         142.7105  137.7002  155.6941 C.ar    1  UNL1        0.1004
     17 N         142.4965  139.1092  155.2262 N.ar    1  UNL1       -0.2422
     18 C         142.3234  140.2135  156.2264 C.ar    1  UNL1        0.1002
     19 C         142.3643  139.9088  157.6946 C.ar    1  UNL1        0.0369
     20 C         142.5782  138.4998  158.1625 C.ar    1  UNL1        0.0714
     21 C         142.7513  137.3955  157.1622 C.ar    1  UNL1        0.1154
     22 N         142.9653  135.9865  157.6301 N.ar    1  UNL1       -0.2089
     23 C         144.5480  133.1354  157.9382 C.3     1  UNL1        0.2542
     24 O         143.3523  133.4732  157.0978 O.3     1  UNL1       -0.4561
     25 N         138.6096  137.4661  165.4116 N.3     1  UNL1       -0.2935
     26 H         139.0658  136.8441  166.0791 H       1  UNL1        0.1236
     27 C         138.1886  138.6867  166.1751 C.3     1  UNL1        0.1152
     28 C         138.6873  140.0394  165.7612 C.ar    1  UNL1        0.0782
     29 C         137.8985  140.8641  164.7878 C.ar    1  UNL1        0.0562
     30 C         138.3971  142.2169  164.3739 C.ar    1  UNL1        0.1752
     31 C         139.6848  142.7449  164.9335 C.ar    1  UNL1        0.1914
     32 C         140.4737  141.9203  165.9069 C.ar    1  UNL1        0.1384
     33 N         139.9749  140.5675  166.3208 N.ar    1  UNL1       -0.2434
     34 O         140.1835  144.0978  164.5196 O.3     1  UNL1       -0.4668
     35 C         139.3947  144.9224  163.5462 C.3     1  UNL1        0.2527
     36 C         138.1070  144.3943  162.9865 C.3     1  UNL1        0.2526
     37 O         137.6083  143.0415  163.4004 O.3     1  UNL1       -0.4683
@<TRIPOS>BOND
     1    23    24    1
     2    24    13    1
     3    13    14   ar
     4    14    15   ar
     5    15    16   ar
     6    16    17   ar
     7    17    18   ar
     8    18    19   ar
     9    19    20   ar
    10    20     9    1
    11     9    10   am
    12    10    11    2
    13    10     1    1
    14     1     2    1
    15     1     3    1
    16     3     4    1
    17     4     5    1
    18     5    25    1
    19    25    27    1
    20    27    28    1
    21    28    29   ar
    22    29    30   ar
    23    30    31   ar
    24    31    32   ar
    25    32    33   ar
    26    31    34    1
    27    34    35    1
    28    35    36    1
    29    36    37    1
    30     5     6    1
    31     6     7    1
    32    20    21   ar
    33    21    22   ar
    34    22    13   ar
    35    21    16   ar
    36     7     1    1
    37    33    28   ar
    38    37    30    1
    39     9    12    1
    40     2     8    1
    41    25    26    1
@<TRIPOS>MOLECULE
*****
 37 41 0 0 0
SMALL
GASTEIGER

@<TRIPOS>ATOM
      1 C         138.3968  139.2180  160.4963 C.3     1  UNL1        0.1565
      2 O         136.9790  139.7066  160.4587 O.3     1  UNL1       -0.3781
      3 C         139.8114  138.9626  160.0681 C.3     1  UNL1        0.0372
      4 C         140.7424  138.2056  160.9681 C.3     1  UNL1        0.0186
      5 C         140.2587  137.7041  162.2965 C.3     1  UNL1        0.0544
      6 C         138.8441  137.9595  162.7247 C.3     1  UNL1        0.0186
      7 C         137.9131  138.7165  161.8247 C.3     1  UNL1        0.0372
      8 H         136.8205  140.1749  159.6241 H       1  UNL1        0.2109
      9 N         137.8031  141.2626  159.0072 N.am    1  UNL1       -0.2808
     10 C         138.3881  139.8892  159.1549 C.2     1  UNL1        0.2502
     11 O         138.9645  139.1872  157.9612 O.2     1  UNL1       -0.2723
     12 H         137.4248  141.7234  159.7906 H       1  UNL1        0.1550
     13 C         134.7375  140.0950  155.9268 C.ar    1  UNL1        0.2251
     14 C         134.7288  140.7662  154.5854 C.ar    1  UNL1        0.0593
     15 C         135.7420  141.8266  154.2708 C.ar    1  UNL1        0.0255
     16 C         136.7639  142.2158  155.2976 C.ar    1  UNL1        0.1004
     17 N         137.7771  143.2762  154.9829 N.ar    1  UNL1       -0.2422
     18 C         138.7989  143.6654  156.0097 C.ar    1  UNL1        0.1002
     19 C         138.8076  142.9942  157.3512 C.ar    1  UNL1        0.0369
     20 C         137.7944  141.9338  157.6658 C.ar    1  UNL1        0.0714
     21 C         136.7725  141.5446  156.6389 C.ar    1  UNL1        0.1154
     22 N         135.7593  140.4842  156.9536 N.ar    1  UNL1       -0.2089
     23 C         133.1666  138.9182  157.6290 C.3     1  UNL1        0.2542
     24 O         133.7243  139.0346  156.2414 O.3     1  UNL1       -0.4561
     25 N         141.1898  136.9471  163.1966 N.3     1  UNL1       -0.2935
     26 H         141.9815  136.6557  162.6233 H       1  UNL1        0.1236
     27 C         141.7588  137.6103  164.4157 C.3     1  UNL1        0.1152
     28 C         141.9780  139.0942  164.4290 C.ar    1  UNL1        0.0782
     29 C         143.0414  139.7031  163.5640 C.ar    1  UNL1        0.0562
     30 C         143.2606  141.1869  163.5773 C.ar    1  UNL1        0.1752
     31 C         142.4163  142.0618  164.4557 C.ar    1  UNL1        0.1914
     32 C         141.3529  141.4530  165.3208 C.ar    1  UNL1        0.1384
     33 N         141.1337  139.9691  165.3075 N.ar    1  UNL1       -0.2434
     34 O         142.6355  143.5457  164.4691 O.3     1  UNL1       -0.4668
     35 C         143.6988  144.1546  163.6040 C.3     1  UNL1        0.2527
     36 C         144.5432  143.2797  162.7256 C.3     1  UNL1        0.2526
     37 O         144.3240  141.7958  162.7123 O.3     1  UNL1       -0.4683
@<TRIPOS>BOND
     1    23    24    1
     2    24    13    1
     3    13    14   ar
     4    14    15   ar
     5    15    16   ar
     6    16    17   ar
     7    17    18   ar
     8    18    19   ar
     9    19    20   ar
    10    20     9    1
    11     9    10   am
    12    10    11    2
    13    10     1    1
    14     1     2    1
    15     1     3    1
    16     3     4    1
    17     4     5    1
    18     5    25    1
    19    25    27    1
    20    27    28    1
    21    28    29   ar
    22    29    30   ar
    23    30    31   ar
    24    31    32   ar
    25    32    33   ar
    26    31    34    1
    27    34    35    1
    28    35    36    1
    29    36    37    1
    30     5     6    1
    31     6     7    1
    32    20    21   ar
    33    21    22   ar
    34    22    13   ar
    35    21    16   ar
    36     7     1    1
    37    33    28   ar
    38    37    30    1
    39     9    12    1
    40     2     8    1
    41    25    26    1
@<TRIPOS>MOLECULE
*****
 37 41 0 0 0
SMALL
GASTEIGER

@<TRIPOS>ATOM
      1 C         140.4577  138.4803  160.7773 C.3     1  UNL1        0.1565
      2 O         139.0877  138.7140  161.3417 O.3     1  UNL1       -0.3781
      3 C         141.9388  138.2500  160.7219 C.3     1  UNL1        0.0372
      4 C         142.6240  138.0910  159.3970 C.3     1  UNL1        0.0186
      5 C         141.8280  138.1621  158.1276 C.3     1  UNL1        0.0544
      6 C         140.3468  138.3924  158.1831 C.3     1  UNL1        0.0186
      7 C         139.6616  138.5515  159.5079 C.3     1  UNL1        0.0372
      8 H         139.1379  138.7454  162.3099 H       1  UNL1        0.2109
      9 N         141.7905  139.4563  162.7826 N.am    1  UNL1       -0.2808
     10 C         140.7779  138.4903  162.2427 C.2     1  UNL1        0.2502
     11 O         140.0856  137.5342  163.1682 O.2     1  UNL1       -0.2723
     12 H         142.2449  140.0838  162.1751 H       1  UNL1        0.1550
     13 C         139.7513  142.3967  165.5113 C.ar    1  UNL1        0.2251
     14 C         140.0716  142.4067  166.9766 C.ar    1  UNL1        0.0593
     15 C         141.0715  141.4366  167.5324 C.ar    1  UNL1        0.0255
     16 C         141.7512  140.4564  166.6229 C.ar    1  UNL1        0.1004
     17 N         142.7512  139.4863  167.1787 N.ar    1  UNL1       -0.2422
     18 C         143.4309  138.5062  166.2692 C.ar    1  UNL1        0.1002
     19 C         143.1107  138.4962  164.8037 C.ar    1  UNL1        0.0369
     20 C         142.1107  139.4663  164.2479 C.ar    1  UNL1        0.0714
     21 C         141.4310  140.4465  165.1575 C.ar    1  UNL1        0.1154
     22 N         140.4311  141.4166  164.6017 N.ar    1  UNL1       -0.2089
     23 C         138.7993  144.8095  165.3632 C.3     1  UNL1        0.2542
     24 O         138.7514  143.3669  164.9555 O.3     1  UNL1       -0.4561
     25 N         142.5132  138.0031  156.8028 N.3     1  UNL1       -0.2935
     26 H         143.4750  137.7269  157.0001 H       1  UNL1        0.1236
     27 C         141.9806  137.0278  155.7953 C.3     1  UNL1        0.1152
     28 C         142.2067  135.5569  155.9828 C.ar    1  UNL1        0.0782
     29 C         143.3641  135.0749  156.8063 C.ar    1  UNL1        0.0562
     30 C         143.5903  133.6040  156.9938 C.ar    1  UNL1        0.1752
     31 C         142.6589  132.6150  156.3577 C.ar    1  UNL1        0.1914
     32 C         141.5016  133.0969  155.5343 C.ar    1  UNL1        0.1384
     33 N         141.2754  134.5679  155.3467 N.ar    1  UNL1       -0.2434
     34 O         142.8851  131.1440  156.5453 O.3     1  UNL1       -0.4668
     35 C         144.0424  130.6621  157.3687 C.3     1  UNL1        0.2527
     36 C         144.9738  131.6511  158.0048 C.3     1  UNL1        0.2526
     37 O         144.7476  133.1221  157.8173 O.3     1  UNL1       -0.4683
@<TRIPOS>BOND
     1    23    24    1
     2    24    13    1
     3    13    14   ar
     4    14    15   ar
     5    15    16   ar
     6    16    17   ar
     7    17    18   ar
     8    18    19   ar
     9    19    20   ar
    10    20     9    1
    11     9    10   am
    12    10    11    2
    13    10     1    1
    14     1     2    1
    15     1     3    1
    16     3     4    1
    17     4     5    1
    18     5    25    1
    19    25    27    1
    20    27    28    1
    21    28    29   ar
    22    29    30   ar
    23    30    31   ar
    24    31    32   ar
    25    32    33   ar
    26    31    34    1
    27    34    35    1
    28    35    36    1
    29    36    37    1
    30     5     6    1
    31     6     7    1
    32    20    21   ar
    33    21    22   ar
    34    22    13   ar
    35    21    16   ar
    36     7     1    1
    37    33    28   ar
    38    37    30    1
    39     9    12    1
    40     2     8    1
    41    25    26    1
@<TRIPOS>MOLECULE
*****
 37 41 0 0 0
SMALL
GASTEIGER

@<TRIPOS>ATOM
      1 C         143.1244  138.6511  160.8002 C.3     1  UNL1        0.1565
      2 O         142.7917  137.2859  161.3253 O.3     1  UNL1       -0.3781
      3 C         143.1928  139.8249  159.8689 C.3     1  UNL1        0.0372
      4 C         143.9066  141.0754  160.2895 C.3     1  UNL1        0.0186
      5 C         144.5519  141.1519  161.6415 C.3     1  UNL1        0.0544
      6 C         144.4835  139.9781  162.5728 C.3     1  UNL1        0.0186
      7 C         143.7697  138.7276  162.1522 C.3     1  UNL1        0.0372
      8 H         142.2848  136.7975  160.6580 H       1  UNL1        0.2109
      9 N         143.1023  137.5759  158.4351 N.am    1  UNL1       -0.2808
     10 C         142.3636  138.1004  159.6307 C.2     1  UNL1        0.2502
     11 O         140.8640  138.0743  159.6566 O.2     1  UNL1       -0.2723
     12 H         144.0865  137.5930  158.4181 H       1  UNL1        0.1550
     13 C         143.7018  133.2981  157.1736 C.ar    1  UNL1        0.2251
     14 C         142.9409  132.7474  156.0041 C.ar    1  UNL1        0.0593
     15 C         141.9803  133.6227  155.2551 C.ar    1  UNL1        0.0255
     16 C         141.7804  135.0486  155.6755 C.ar    1  UNL1        0.1004
     17 N         140.8198  135.9238  154.9265 N.ar    1  UNL1       -0.2422
     18 C         140.6200  137.3497  155.3469 C.ar    1  UNL1        0.1002
     19 C         141.3808  137.9004  156.5165 C.ar    1  UNL1        0.0369
     20 C         142.3415  137.0252  157.2656 C.ar    1  UNL1        0.0714
     21 C         142.5413  135.5992  156.8451 C.ar    1  UNL1        0.1154
     22 N         143.5019  134.7240  157.5941 N.ar    1  UNL1       -0.2089
     23 C         144.6031  130.9329  157.7598 C.3     1  UNL1        0.2542
     24 O         144.6624  132.4229  157.9227 O.3     1  UNL1       -0.4561
     25 N         145.2656  142.4024  162.0621 N.3     1  UNL1       -0.2935
     26 H         145.7648  142.7466  161.2418 H       1  UNL1        0.1236
     27 C         144.4880  143.5605  162.6133 C.3     1  UNL1        0.1152
     28 C         143.4551  143.3323  163.6768 C.ar    1  UNL1        0.0782
     29 C         143.8772  142.9241  165.0571 C.ar    1  UNL1        0.0562
     30 C         142.8443  142.6958  166.1206 C.ar    1  UNL1        0.1752
     31 C         141.3892  142.8759  165.8037 C.ar    1  UNL1        0.1914
     32 C         140.9671  143.2841  164.4235 C.ar    1  UNL1        0.1384
     33 N         142.0000  143.5123  163.3600 N.ar    1  UNL1       -0.2434
     34 O         140.3563  142.6476  166.8673 O.3     1  UNL1       -0.4668
     35 C         140.7785  142.2394  168.2475 C.3     1  UNL1        0.2527
     36 C         142.2336  142.0594  168.5643 C.3     1  UNL1        0.2526
     37 O         143.2664  142.2876  167.5008 O.3     1  UNL1       -0.4683
@<TRIPOS>BOND
     1    23    24    1
     2    24    13    1
     3    13    14   ar
     4    14    15   ar
     5    15    16   ar
     6    16    17   ar
     7    17    18   ar
     8    18    19   ar
     9    19    20   ar
    10    20     9    1
    11     9    10   am
    12    10    11    2
    13    10     1    1
    14     1     2    1
    15     1     3    1
    16     3     4    1
    17     4     5    1
    18     5    25    1
    19    25    27    1
    20    27    28    1
    21    28    29   ar
    22    29    30   ar
    23    30    31   ar
    24    31    32   ar
    25    32    33   ar
    26    31    34    1
    27    34    35    1
    28    35    36    1
    29    36    37    1
    30     5     6    1
    31     6     7    1
    32    20    21   ar
    33    21    22   ar
    34    22    13   ar
    35    21    16   ar
    36     7     1    1
    37    33    28   ar
    38    37    30    1
    39     9    12    1
    40     2     8    1
    41    25    26    1
