@<TRIPOS>MOLECULE
*****
 9 9 0 0 0
SMALL
GASTEIGER

@<TRIPOS>ATOM
      1 N         146.2893  133.3286  173.5841 N.pl3   1  UNL1       -0.3569
      2 C         145.9361  134.6232  172.9137 C.ar    1  UNL1        0.0446
      3 C         144.7903  134.6791  171.9473 C.ar    1  UNL1        0.0348
      4 C         144.4371  135.9737  171.2770 C.ar    1  UNL1        0.1001
      5 N         145.2296  137.2123  171.5731 N.ar    1  UNL1       -0.2422
      6 C         146.3753  137.1563  172.5395 C.ar    1  UNL1        0.1001
      7 C         146.7286  135.8618  173.2099 C.ar    1  UNL1        0.0348
      8 H         145.7691  132.5157  173.3897 H       1  UNL1        0.1424
      9 H         147.0413  133.2919  174.2184 H       1  UNL1        0.1424
@<TRIPOS>BOND
     1     1     2    1
     2     2     3   ar
     3     3     4   ar
     4     4     5   ar
     5     5     6   ar
     6     6     7   ar
     7     7     2   ar
     8     1     8    1
     9     1     9    1
@<TRIPOS>MOLECULE
*****
 9 9 0 0 0
SMALL
GASTEIGER

@<TRIPOS>ATOM
      1 N         139.9032  139.5706  171.1333 N.pl3   1  UNL1       -0.3569
      2 C         140.4972  140.9126  170.8234 C.ar    1  UNL1        0.0446
      3 C         139.6258  142.0159  170.3005 C.ar    1  UNL1        0.0348
      4 C         140.2198  143.3579  169.9906 C.ar    1  UNL1        0.1001
      5 N         141.6852  143.5967  170.2035 N.ar    1  UNL1       -0.2422
      6 C         142.5567  142.4935  170.7264 C.ar    1  UNL1        0.1001
      7 C         141.9627  141.1515  171.0363 C.ar    1  UNL1        0.0348
      8 H         138.9414  139.4138  170.9935 H       1  UNL1        0.1424
      9 H         140.4752  138.8465  171.4765 H       1  UNL1        0.1424
@<TRIPOS>BOND
     1     1     2    1
     2     2     3   ar
     3     3     4   ar
     4     4     5   ar
     5     5     6   ar
     6     6     7   ar
     7     7     2   ar
     8     1     8    1
     9     1     9    1
@<TRIPOS>MOLECULE
*****
 9 9 0 0 0
SMALL
GASTEIGER

@<TRIPOS>ATOM
      1 N         143.4011  143.9797  171.2457 N.pl3   1  UNL1       -0.3569
      2 C         142.7007  143.0569  170.2929 C.ar    1  UNL1        0.0446
      3 C         143.4159  141.8554  169.7499 C.ar    1  UNL1        0.0348
      4 C         142.7154  140.9327  168.7971 C.ar    1  UNL1        0.1001
      5 N         141.2997  141.2114  168.3872 N.ar    1  UNL1       -0.2422
      6 C         140.5845  142.4129  168.9301 C.ar    1  UNL1        0.1001
      7 C         141.2850  143.3357  169.8830 C.ar    1  UNL1        0.0348
      8 H         144.3303  143.7967  171.5147 H       1  UNL1        0.1424
      9 H         142.9317  144.7683  171.6020 H       1  UNL1        0.1424
@<TRIPOS>BOND
     1     1     2    1
     2     2     3   ar
     3     3     4   ar
     4     4     5   ar
     5     5     6   ar
     6     6     7   ar
     7     7     2   ar
     8     1     8    1
     9     1     9    1
@<TRIPOS>MOLECULE
*****
 9 9 0 0 0
SMALL
GASTEIGER

@<TRIPOS>ATOM
      1 N         143.3955  143.9757  171.2448 N.pl3   1  UNL1       -0.3569
      2 C         142.6931  143.0613  170.2853 C.ar    1  UNL1        0.0446
      3 C         141.2758  143.3421  169.8826 C.ar    1  UNL1        0.0348
      4 C         140.5735  142.4277  168.9232 C.ar    1  UNL1        0.1001
      5 N         141.2885  141.2325  168.3664 N.ar    1  UNL1       -0.2422
      6 C         142.7058  140.9516  168.7691 C.ar    1  UNL1        0.1001
      7 C         143.4081  141.8660  169.7286 C.ar    1  UNL1        0.0348
      8 H         142.9262  144.7602  171.6102 H       1  UNL1        0.1424
      9 H         144.3257  143.7913  171.5091 H       1  UNL1        0.1424
@<TRIPOS>BOND
     1     1     2    1
     2     2     3   ar
     3     3     4   ar
     4     4     5   ar
     5     5     6   ar
     6     6     7   ar
     7     7     2   ar
     8     1     8    1
     9     1     9    1
@<TRIPOS>MOLECULE
*****
 9 9 0 0 0
SMALL
GASTEIGER

@<TRIPOS>ATOM
      1 N         143.8744  139.5874  171.3861 N.pl3   1  UNL1       -0.3569
      2 C         142.9686  140.2125  170.3669 C.ar    1  UNL1        0.0446
      3 C         141.7279  139.4944  169.9254 C.ar    1  UNL1        0.0348
      4 C         140.8220  140.1195  168.9063 C.ar    1  UNL1        0.1001
      5 N         141.1568  141.4626  168.3286 N.ar    1  UNL1       -0.2422
      6 C         142.3975  142.1807  168.7701 C.ar    1  UNL1        0.1001
      7 C         143.3034  141.5557  169.7893 C.ar    1  UNL1        0.0348
      8 H         143.6547  138.7058  171.7652 H       1  UNL1        0.1424
      9 H         144.6888  140.0588  171.6759 H       1  UNL1        0.1424
@<TRIPOS>BOND
     1     1     2    1
     2     2     3   ar
     3     3     4   ar
     4     4     5   ar
     5     5     6   ar
     6     6     7   ar
     7     7     2   ar
     8     1     8    1
     9     1     9    1
@<TRIPOS>MOLECULE
*****
 9 9 0 0 0
SMALL
GASTEIGER

@<TRIPOS>ATOM
      1 N         144.0328  142.7325  170.1601 N.pl3   1  UNL1       -0.3569
      2 C         142.5831  142.3824  170.3206 C.ar    1  UNL1        0.0446
      3 C         142.1903  141.0201  170.8103 C.ar    1  UNL1        0.0348
      4 C         140.7406  140.6699  170.9708 C.ar    1  UNL1        0.1001
      5 N         139.6837  141.6821  170.6416 N.ar    1  UNL1       -0.2422
      6 C         140.0764  143.0443  170.1519 C.ar    1  UNL1        0.1001
      7 C         141.5262  143.3945  169.9914 C.ar    1  UNL1        0.0348
      8 H         144.7265  142.0682  170.3762 H       1  UNL1        0.1424
      9 H         144.2906  143.6267  169.8387 H       1  UNL1        0.1424
@<TRIPOS>BOND
     1     1     2    1
     2     2     3   ar
     3     3     4   ar
     4     4     5   ar
     5     5     6   ar
     6     6     7   ar
     7     7     2   ar
     8     1     8    1
     9     1     9    1
@<TRIPOS>MOLECULE
*****
 9 9 0 0 0
SMALL
GASTEIGER

@<TRIPOS>ATOM
      1 N         139.9568  142.5865  171.4990 N.pl3   1  UNL1       -0.3569
      2 C         140.0073  142.1233  170.0732 C.ar    1  UNL1        0.0446
      3 C         139.5468  140.7409  169.7170 C.ar    1  UNL1        0.0348
      4 C         139.5973  140.2776  168.2912 C.ar    1  UNL1        0.1001
      5 N         140.1082  141.1967  167.2216 N.ar    1  UNL1       -0.2422
      6 C         140.5686  142.5791  167.5778 C.ar    1  UNL1        0.1001
      7 C         140.5182  143.0424  169.0036 C.ar    1  UNL1        0.0348
      8 H         139.6215  141.9832  172.2010 H       1  UNL1        0.1424
      9 H         140.2590  143.4939  171.7327 H       1  UNL1        0.1424
@<TRIPOS>BOND
     1     1     2    1
     2     2     3   ar
     3     3     4   ar
     4     4     5   ar
     5     5     6   ar
     6     6     7   ar
     7     7     2   ar
     8     1     8    1
     9     1     9    1
@<TRIPOS>MOLECULE
*****
 9 9 0 0 0
SMALL
GASTEIGER

@<TRIPOS>ATOM
      1 N         139.9837  139.6482  171.3265 N.pl3   1  UNL1       -0.3569
      2 C         140.5509  139.7785  169.9440 C.ar    1  UNL1        0.0446
      3 C         141.9962  139.4649  169.6936 C.ar    1  UNL1        0.0348
      4 C         142.5633  139.5952  168.3111 C.ar    1  UNL1        0.1001
      5 N         141.6852  140.0389  167.1789 N.ar    1  UNL1       -0.2422
      6 C         140.2399  140.3525  167.4293 C.ar    1  UNL1        0.1001
      7 C         139.6727  140.2222  168.8118 C.ar    1  UNL1        0.0348
      8 H         140.5601  139.3570  172.0696 H       1  UNL1        0.1424
      9 H         139.0351  139.8540  171.4908 H       1  UNL1        0.1424
@<TRIPOS>BOND
     1     1     2    1
     2     2     3   ar
     3     3     4   ar
     4     4     5   ar
     5     5     6   ar
     6     6     7   ar
     7     7     2   ar
     8     1     8    1
     9     1     9    1
@<TRIPOS>MOLECULE
*****
 9 9 0 0 0
SMALL
GASTEIGER

@<TRIPOS>ATOM
      1 N         142.8775  138.8442  170.3992 N.pl3   1  UNL1       -0.3569
      2 C         142.4372  140.2778  170.4336 C.ar    1  UNL1        0.0446
      3 C         143.3527  141.3557  169.9338 C.ar    1  UNL1        0.0348
      4 C         142.9125  142.7892  169.9683 C.ar    1  UNL1        0.1001
      5 N         141.5567  143.1448  170.5026 N.ar    1  UNL1       -0.2422
      6 C         140.6413  142.0669  171.0024 C.ar    1  UNL1        0.1001
      7 C         141.0815  140.6334  170.9679 C.ar    1  UNL1        0.0348
      8 H         143.7673  138.6109  170.0485 H       1  UNL1        0.1424
      9 H         142.2766  138.1368  170.7272 H       1  UNL1        0.1424
@<TRIPOS>BOND
     1     1     2    1
     2     2     3   ar
     3     3     4   ar
     4     4     5   ar
     5     5     6   ar
     6     6     7   ar
     7     7     2   ar
     8     1     8    1
     9     1     9    1
