@<TRIPOS>MOLECULE
*****
 33 38 0 0 0
SMALL
GASTEIGER

@<TRIPOS>ATOM
      1 C         142.6286  137.9825  157.4364 C.ar    1  UNL1        0.1028
      2 C         142.8179  138.6612  156.1122 C.ar    1  UNL1        0.0131
      3 C         142.4715  140.1123  155.9569 C.ar    1  UNL1       -0.0015
      4 C         141.9150  141.1670  156.9297 C.ar    1  UNL1        0.0035
      5 C         142.1084  139.8103  157.5395 C.ar    1  UNL1        0.0358
      6 C         142.0928  138.7549  158.6053 C.ar    1  UNL1        0.1545
      7 O         141.8705  138.1616  159.9648 O.3     1  UNL1       -0.4528
      8 C         141.4753  138.1207  161.4114 C.ar    1  UNL1        0.1450
      9 C         141.3061  137.0854  163.0050 C.ar    1  UNL1        0.0372
     10 C         140.8500  137.3080  164.4165 C.ar    1  UNL1       -0.0014
     11 C         140.3662  138.6621  164.8435 C.ar    1  UNL1       -0.0243
     12 C         140.4244  139.6359  163.7042 C.ar    1  UNL1       -0.0052
     13 C         140.9676  138.6384  162.7244 C.ar    1  UNL1        0.0345
     14 C         139.9285  140.9614  164.2015 C.3     1  UNL1        0.0980
     15 C         139.5639  140.8067  165.6482 C.3     1  UNL1        0.0290
     16 C         139.8344  139.3857  166.0451 C.3     1  UNL1        0.0281
     17 N         139.5555  142.4130  164.1406 N.am    1  UNL1       -0.2763
     18 C         139.0179  143.5277  164.9883 C.3     1  UNL1        0.0956
     19 C         138.9273  144.7573  164.1341 C.3     1  UNL1        0.0466
     20 C         139.3777  144.8251  162.4650 C.3     1  UNL1        0.1337
     21 N         139.6000  145.4184  161.1054 N.3     1  UNL1       -0.2863
     22 C         139.9951  145.4593  159.6589 C.3     1  UNL1        0.1151
     23 C         140.5029  144.9416  158.3459 C.ar    1  UNL1        0.0739
     24 C         140.3499  146.2535  157.6350 C.ar    1  UNL1        0.1147
     25 N         140.7986  146.0668  156.2159 N.ar    1  UNL1       -0.2226
     26 C         141.2288  144.6395  156.0497 C.ar    1  UNL1        0.1786
     27 N         141.0461  143.9440  157.3661 N.ar    1  UNL1       -0.3070
     28 C         141.5420  142.6186  156.8688 C.3     1  UNL1        0.1341
     29 C         139.3621  143.7698  163.5309 C.2     1  UNL1        0.2401
     30 O         139.0975  144.0100  164.2434 O.2     1  UNL1       -0.2734
     31 H         140.2024  146.1828  161.4107 H       1  UNL1        0.1240
     32 N         143.3213  135.0801  157.7472 N.1     1  UNL1       -0.1907
     33 C         142.9749  136.5313  157.5918 C.1     1  UNL1        0.1035
@<TRIPOS>BOND
     1    32    33    3
     2    33     1    1
     3     1     2   ar
     4     2     3   ar
     5     3     4   ar
     6     4     5   ar
     7     5     6   ar
     8     6     7    1
     9     7     8    1
    10     8     9   ar
    11     9    10   ar
    12    10    11   ar
    13    11    12   ar
    14    12    13   ar
    15    12    14    1
    16    14    15    1
    17    15    16    1
    18    14    17    1
    19    17    18    1
    20    18    19    1
    21    20    19    1
    22    20    21    1
    23    21    22    1
    24    22    23    1
    25    23    24   ar
    26    24    25   ar
    27    25    26   ar
    28    26    27   ar
    29    27    28    1
    30    20    29    1
    31    29    30    2
    32     6     1   ar
    33    13     8   ar
    34    29    17   am
    35    28     4    1
    36    16    11    1
    37    27    23   ar
    38    21    31    1
@<TRIPOS>MOLECULE
*****
 33 38 0 0 0
SMALL
GASTEIGER

@<TRIPOS>ATOM
      1 C         140.2170  144.6363  156.7603 C.ar    1  UNL1        0.1028
      2 C         140.5622  144.0084  155.4426 C.ar    1  UNL1        0.0131
      3 C         141.0715  142.5983  155.3941 C.ar    1  UNL1       -0.0015
      4 C         141.3488  141.5462  156.4825 C.ar    1  UNL1        0.0035
      5 C         140.8329  142.8527  157.0085 C.ar    1  UNL1        0.0358
      6 C         140.3810  143.8543  158.0297 C.ar    1  UNL1        0.1545
      7 O         140.0620  144.3980  159.3907 O.3     1  UNL1       -0.4528
      8 C         139.9243  144.4015  160.8844 C.ar    1  UNL1        0.1450
      9 C         139.4342  145.3700  162.4534 C.ar    1  UNL1        0.0372
     10 C         139.3895  145.1176  163.9313 C.ar    1  UNL1       -0.0014
     11 C         139.8159  143.7874  164.4781 C.ar    1  UNL1       -0.0243
     12 C         140.2462  142.8673  163.3745 C.ar    1  UNL1       -0.0052
     13 C         139.9890  143.8639  162.2833 C.ar    1  UNL1        0.0345
     14 C         140.6567  141.5632  163.9917 C.3     1  UNL1        0.0980
     15 C         140.4801  141.6775  165.4769 C.3     1  UNL1        0.0290
     16 C         139.9605  143.0521  165.7775 C.3     1  UNL1        0.0281
     17 N         141.1581  140.1504  164.0411 N.am    1  UNL1       -0.2763
     18 C         141.4667  139.0429  165.0046 C.3     1  UNL1        0.0956
     19 C         141.9600  137.8663  164.2159 C.3     1  UNL1        0.0466
     20 C         142.1259  137.8423  162.4939 C.3     1  UNL1        0.1337
     21 N         142.4450  137.2985  161.1329 N.3     1  UNL1       -0.2863
     22 C         142.5826  137.2951  159.6392 C.3     1  UNL1        0.1151
     23 C         142.5180  137.8326  158.2403 C.ar    1  UNL1        0.0739
     24 C         143.0272  136.5722  157.6063 C.ar    1  UNL1        0.1147
     25 N         143.0847  136.7899  156.1233 N.ar    1  UNL1       -0.2226
     26 C         142.6110  138.1849  155.8408 C.ar    1  UNL1        0.1786
     27 N         142.2608  138.8293  157.1492 N.ar    1  UNL1       -0.3070
     28 C         141.8502  140.1333  156.5319 C.3     1  UNL1        0.1341
     29 C         141.6740  138.8437  163.5152 C.2     1  UNL1        0.2401
     30 O         141.6952  138.5917  164.2712 O.2     1  UNL1       -0.2734
     31 H         141.8463  136.4750  161.1949 H       1  UNL1        0.1240
     32 N         139.1983  147.4564  156.8572 N.1     1  UNL1       -0.1907
     33 C         139.7077  146.0464  156.8087 C.1     1  UNL1        0.1035
@<TRIPOS>BOND
     1    32    33    3
     2    33     1    1
     3     1     2   ar
     4     2     3   ar
     5     3     4   ar
     6     4     5   ar
     7     5     6   ar
     8     6     7    1
     9     7     8    1
    10     8     9   ar
    11     9    10   ar
    12    10    11   ar
    13    11    12   ar
    14    12    13   ar
    15    12    14    1
    16    14    15    1
    17    15    16    1
    18    14    17    1
    19    17    18    1
    20    18    19    1
    21    20    19    1
    22    20    21    1
    23    21    22    1
    24    22    23    1
    25    23    24   ar
    26    24    25   ar
    27    25    26   ar
    28    26    27   ar
    29    27    28    1
    30    20    29    1
    31    29    30    2
    32     6     1   ar
    33    13     8   ar
    34    29    17   am
    35    28     4    1
    36    16    11    1
    37    27    23   ar
    38    21    31    1
@<TRIPOS>MOLECULE
*****
 33 38 0 0 0
SMALL
GASTEIGER

@<TRIPOS>ATOM
      1 C         139.5416  146.9476  156.3282 C.ar    1  UNL1        0.1028
      2 C         139.6350  146.7771  154.8409 C.ar    1  UNL1        0.0131
      3 C         140.3148  145.5701  154.2655 C.ar    1  UNL1       -0.0015
      4 C         141.0038  144.3512  154.9042 C.ar    1  UNL1        0.0035
      5 C         140.4515  145.3333  155.8943 C.ar    1  UNL1        0.0358
      6 C         140.1280  145.9111  157.2403 C.ar    1  UNL1        0.1545
      7 O         140.0827  145.9965  158.7371 O.3     1  UNL1       -0.4528
      8 C         140.3223  145.5765  160.1571 C.ar    1  UNL1        0.1450
      9 C         140.1033  145.9708  162.0109 C.ar    1  UNL1        0.0372
     10 C         140.4652  145.3338  163.3198 C.ar    1  UNL1       -0.0014
     11 C         141.2022  144.0275  163.3397 C.ar    1  UNL1       -0.0243
     12 C         141.4727  143.5434  161.9461 C.ar    1  UNL1       -0.0052
     13 C         140.8104  144.7151  161.2838 C.ar    1  UNL1        0.0345
     14 C         142.2084  142.2398  162.0427 C.3     1  UNL1        0.0980
     15 C         142.3926  141.9182  163.4962 C.3     1  UNL1        0.0290
     16 C         141.7708  143.0230  164.2978 C.3     1  UNL1        0.0281
     17 N         142.9055  141.0027  161.5592 N.am    1  UNL1       -0.2763
     18 C         143.6012  139.7712  162.0585 C.3     1  UNL1        0.0956
     19 C         144.0476  138.9760  160.8676 C.3     1  UNL1        0.0466
     20 C         143.7812  139.4427  159.2231 C.3     1  UNL1        0.1337
     21 N         143.8266  139.3573  157.7262 N.3     1  UNL1       -0.2863
     22 C         143.5869  139.7773  156.3063 C.3     1  UNL1        0.1151
     23 C         143.0988  140.6387  155.1795 C.ar    1  UNL1        0.0739
     24 C         143.6111  139.7271  154.1041 C.ar    1  UNL1        0.1147
     25 N         143.2654  140.3355  152.7773 N.ar    1  UNL1       -0.2226
     26 C         142.5394  141.6230  153.0327 C.ar    1  UNL1        0.1786
     27 N         142.4365  141.8105  154.5174 N.ar    1  UNL1       -0.3070
     28 C         141.7008  143.1141  154.4207 C.3     1  UNL1        0.1341
     29 C         143.4578  140.0205  160.5691 C.2     1  UNL1        0.2401
     30 O         143.7028  139.5883  161.1925 O.2     1  UNL1       -0.2734
     31 H         143.3880  138.4396  157.6502 H       1  UNL1        0.1240
     32 N         138.1819  149.3615  157.4790 N.1     1  UNL1       -0.1907
     33 C         138.8617  148.1545  156.9036 C.1     1  UNL1        0.1035
@<TRIPOS>BOND
     1    32    33    3
     2    33     1    1
     3     1     2   ar
     4     2     3   ar
     5     3     4   ar
     6     4     5   ar
     7     5     6   ar
     8     6     7    1
     9     7     8    1
    10     8     9   ar
    11     9    10   ar
    12    10    11   ar
    13    11    12   ar
    14    12    13   ar
    15    12    14    1
    16    14    15    1
    17    15    16    1
    18    14    17    1
    19    17    18    1
    20    18    19    1
    21    20    19    1
    22    20    21    1
    23    21    22    1
    24    22    23    1
    25    23    24   ar
    26    24    25   ar
    27    25    26   ar
    28    26    27   ar
    29    27    28    1
    30    20    29    1
    31    29    30    2
    32     6     1   ar
    33    13     8   ar
    34    29    17   am
    35    28     4    1
    36    16    11    1
    37    27    23   ar
    38    21    31    1
@<TRIPOS>MOLECULE
*****
 33 38 0 0 0
SMALL
GASTEIGER

@<TRIPOS>ATOM
      1 C         139.9629  144.6322  155.9080 C.ar    1  UNL1        0.1028
      2 C         140.1191  143.9070  154.6044 C.ar    1  UNL1        0.0131
      3 C         140.6182  142.4925  154.5880 C.ar    1  UNL1       -0.0015
      4 C         141.0479  141.5198  155.7005 C.ar    1  UNL1        0.0035
      5 C         140.6100  142.8658  156.1968 C.ar    1  UNL1        0.0358
      6 C         140.3058  143.9430  157.1954 C.ar    1  UNL1        0.1545
      7 O         140.1817  144.5872  158.5443 O.3     1  UNL1       -0.4528
      8 C         140.2566  144.7004  160.0382 C.ar    1  UNL1        0.1450
      9 C         139.9920  145.7850  161.5854 C.ar    1  UNL1        0.0372
     10 C         140.1571  145.6410  163.0693 C.ar    1  UNL1       -0.0014
     11 C         140.6581  144.3503  163.6464 C.ar    1  UNL1       -0.0243
     12 C         140.9292  143.3485  162.5636 C.ar    1  UNL1       -0.0052
     13 C         140.5191  144.2654  161.4495 C.ar    1  UNL1        0.0345
     14 C         141.4245  142.0891  163.2106 C.3     1  UNL1        0.0980
     15 C         141.4596  142.3126  164.6934 C.3     1  UNL1        0.0290
     16 C         140.9859  143.7101  164.9628 C.3     1  UNL1        0.0281
     17 N         141.9296  140.6790  163.2921 N.am    1  UNL1       -0.2763
     18 C         142.3726  139.6417  164.2810 C.3     1  UNL1        0.0956
     19 C         142.7510  138.4065  163.5189 C.3     1  UNL1        0.0466
     20 C         142.6718  138.2558  161.7971 C.3     1  UNL1        0.1337
     21 N         142.7958  137.6116  160.4482 N.3     1  UNL1       -0.2863
     22 C         142.7209  137.4984  158.9544 C.3     1  UNL1        0.1151
     23 C         142.4585  137.9334  157.5430 C.ar    1  UNL1        0.0739
     24 C         142.8745  136.6256  156.9375 C.ar    1  UNL1        0.1147
     25 N         142.7215  136.7344  155.4493 N.ar    1  UNL1       -0.2226
     26 C         142.2109  138.1093  155.1350 C.ar    1  UNL1        0.1786
     27 N         142.0483  138.8504  156.4290 N.ar    1  UNL1       -0.3070
     28 C         141.5530  140.1098  155.7820 C.3     1  UNL1        0.1341
     29 C         142.3676  139.3329  162.7958 C.2     1  UNL1        0.2401
     30 O         142.4957  139.1364  163.5576 O.2     1  UNL1       -0.2734
     31 H         142.2130  136.8003  160.6543 H       1  UNL1        0.1240
     32 N         138.9648  147.4611  155.9407 N.1     1  UNL1       -0.1907
     33 C         139.4638  146.0466  155.9244 C.1     1  UNL1        0.1035
@<TRIPOS>BOND
     1    32    33    3
     2    33     1    1
     3     1     2   ar
     4     2     3   ar
     5     3     4   ar
     6     4     5   ar
     7     5     6   ar
     8     6     7    1
     9     7     8    1
    10     8     9   ar
    11     9    10   ar
    12    10    11   ar
    13    11    12   ar
    14    12    13   ar
    15    12    14    1
    16    14    15    1
    17    15    16    1
    18    14    17    1
    19    17    18    1
    20    18    19    1
    21    20    19    1
    22    20    21    1
    23    21    22    1
    24    22    23    1
    25    23    24   ar
    26    24    25   ar
    27    25    26   ar
    28    26    27   ar
    29    27    28    1
    30    20    29    1
    31    29    30    2
    32     6     1   ar
    33    13     8   ar
    34    29    17   am
    35    28     4    1
    36    16    11    1
    37    27    23   ar
    38    21    31    1
@<TRIPOS>MOLECULE
*****
 33 38 0 0 0
SMALL
GASTEIGER

@<TRIPOS>ATOM
      1 C         143.1990  138.8394  155.5179 C.ar    1  UNL1        0.1028
      2 C         142.7965  139.4013  154.1867 C.ar    1  UNL1        0.0131
      3 C         142.1248  140.7404  154.1100 C.ar    1  UNL1       -0.0015
      4 C         141.7133  141.7692  155.1779 C.ar    1  UNL1        0.0035
      5 C         142.3741  140.5413  155.7304 C.ar    1  UNL1        0.0358
      6 C         142.9300  139.6164  156.7724 C.ar    1  UNL1        0.1545
      7 O         143.2961  139.1355  158.1452 O.3     1  UNL1       -0.4528
      8 C         143.4170  139.1718  159.6399 C.ar    1  UNL1        0.1450
      9 C         144.0010  138.2927  161.2294 C.ar    1  UNL1        0.0372
     10 C         143.9993  138.5719  162.7031 C.ar    1  UNL1       -0.0014
     11 C         143.4130  139.8507  163.2235 C.ar    1  UNL1       -0.0243
     12 C         142.8891  140.6961  162.1007 C.ar    1  UNL1       -0.0052
     13 C         143.2740  139.7199  161.0289 C.ar    1  UNL1        0.0345
     14 C         142.3208  141.9520  162.6922 C.3     1  UNL1        0.0980
     15 C         142.4934  141.8827  164.1806 C.3     1  UNL1        0.0290
     16 C         143.1684  140.5841  164.5091 C.3     1  UNL1        0.0281
     17 N         141.6555  143.2962  162.7133 N.am    1  UNL1       -0.2763
     18 C         141.2079  144.3744  163.6552 C.3     1  UNL1        0.0956
     19 C         140.5877  145.4719  162.8423 C.3     1  UNL1        0.0466
     20 C         140.4389  145.4491  161.1188 C.3     1  UNL1        0.1337
     21 N         140.0727  145.9300  159.7459 N.3     1  UNL1       -0.2863
     22 C         139.9519  145.8936  158.2512 C.3     1  UNL1        0.1151
     23 C         140.0948  145.3456  156.8622 C.ar    1  UNL1        0.0739
     24 C         139.4473  146.5269  156.2025 C.ar    1  UNL1        0.1147
     25 N         139.4320  146.2807  154.7229 N.ar    1  UNL1       -0.2226
     26 C         140.0701  144.9473  154.4683 C.ar    1  UNL1        0.1786
     27 N         140.4798  144.3694  155.7904 N.ar    1  UNL1       -0.3070
     28 C         141.0481  143.1135  155.1990 C.3     1  UNL1        0.1341
     29 C         140.9947  144.5243  162.1608 C.2     1  UNL1        0.2401
     30 O         140.9357  144.7838  162.9122 O.2     1  UNL1       -0.2734
     31 H         140.5693  146.8193  159.7995 H       1  UNL1        0.1240
     32 N         144.5424  136.1613  155.6714 N.1     1  UNL1       -0.1907
     33 C         143.8707  137.5003  155.5946 C.1     1  UNL1        0.1035
@<TRIPOS>BOND
     1    32    33    3
     2    33     1    1
     3     1     2   ar
     4     2     3   ar
     5     3     4   ar
     6     4     5   ar
     7     5     6   ar
     8     6     7    1
     9     7     8    1
    10     8     9   ar
    11     9    10   ar
    12    10    11   ar
    13    11    12   ar
    14    12    13   ar
    15    12    14    1
    16    14    15    1
    17    15    16    1
    18    14    17    1
    19    17    18    1
    20    18    19    1
    21    20    19    1
    22    20    21    1
    23    21    22    1
    24    22    23    1
    25    23    24   ar
    26    24    25   ar
    27    25    26   ar
    28    26    27   ar
    29    27    28    1
    30    20    29    1
    31    29    30    2
    32     6     1   ar
    33    13     8   ar
    34    29    17   am
    35    28     4    1
    36    16    11    1
    37    27    23   ar
    38    21    31    1
@<TRIPOS>MOLECULE
*****
 33 38 0 0 0
SMALL
GASTEIGER

@<TRIPOS>ATOM
      1 C         145.3090  142.3896  157.1185 C.ar    1  UNL1        0.1028
      2 C         144.7604  142.3894  155.7224 C.ar    1  UNL1        0.0131
      3 C         143.3034  142.1199  155.4891 C.ar    1  UNL1       -0.0015
      4 C         142.1292  141.8148  156.4360 C.ar    1  UNL1        0.0035
      5 C         143.4421  142.0200  157.1318 C.ar    1  UNL1        0.0358
      6 C         144.4006  142.1202  158.2813 C.ar    1  UNL1        0.1545
      7 O         144.8586  142.1000  159.7094 O.3     1  UNL1       -0.4528
      8 C         144.7466  141.9626  161.1990 C.ar    1  UNL1        0.1450
      9 C         145.6286  142.0057  162.8903 C.ar    1  UNL1        0.0372
     10 C         145.2527  141.8200  164.3304 C.ar    1  UNL1       -0.0014
     11 C         143.8324  141.5110  164.7009 C.ar    1  UNL1       -0.0243
     12 C         142.9645  141.4342  163.4799 C.ar    1  UNL1       -0.0052
     13 C         144.0814  141.7288  162.5229 C.ar    1  UNL1        0.0345
     14 C         141.5658  141.1237  163.9241 C.3     1  UNL1        0.0980
     15 C         141.5693  141.0086  165.4197 C.3     1  UNL1        0.0290
     16 C         142.9701  141.2479  165.8998 C.3     1  UNL1        0.0281
     17 N         140.0983  140.8446  163.7879 N.am    1  UNL1       -0.2763
     18 C         138.8765  140.5403  164.6031 C.3     1  UNL1        0.0956
     19 C         137.7186  140.3846  163.6624 C.3     1  UNL1        0.0466
     20 C         137.8270  140.5392  161.9426 C.3     1  UNL1        0.1337
     21 N         137.3689  140.5593  160.5144 N.3     1  UNL1       -0.2863
     22 C         137.4810  140.6968  159.0249 C.3     1  UNL1        0.1151
     23 C         138.1461  140.9306  157.7009 C.ar    1  UNL1        0.0739
     24 C         136.8894  140.7443  156.9034 C.ar    1  UNL1        0.1147
     25 N         137.2297  140.9238  155.4536 N.ar    1  UNL1       -0.2226
     26 C         138.6967  141.2209  155.3550 C.ar    1  UNL1        0.1786
     27 N         139.2631  141.2252  156.7440 N.ar    1  UNL1       -0.3070
     28 C         140.6618  141.5357  156.2998 C.3     1  UNL1        0.1341
     29 C         138.7854  140.6393  163.0922 C.2     1  UNL1        0.2401
     30 O         138.4658  140.5204  163.8127 O.2     1  UNL1       -0.2734
     31 H         136.6345  141.2560  160.6391 H       1  UNL1        0.1240
     32 N         148.2230  142.9286  157.5852 N.1     1  UNL1       -0.1907
     33 C         146.7660  142.6591  157.3518 C.1     1  UNL1        0.1035
@<TRIPOS>BOND
     1    32    33    3
     2    33     1    1
     3     1     2   ar
     4     2     3   ar
     5     3     4   ar
     6     4     5   ar
     7     5     6   ar
     8     6     7    1
     9     7     8    1
    10     8     9   ar
    11     9    10   ar
    12    10    11   ar
    13    11    12   ar
    14    12    13   ar
    15    12    14    1
    16    14    15    1
    17    15    16    1
    18    14    17    1
    19    17    18    1
    20    18    19    1
    21    20    19    1
    22    20    21    1
    23    21    22    1
    24    22    23    1
    25    23    24   ar
    26    24    25   ar
    27    25    26   ar
    28    26    27   ar
    29    27    28    1
    30    20    29    1
    31    29    30    2
    32     6     1   ar
    33    13     8   ar
    34    29    17   am
    35    28     4    1
    36    16    11    1
    37    27    23   ar
    38    21    31    1
@<TRIPOS>MOLECULE
*****
 33 38 0 0 0
SMALL
GASTEIGER

@<TRIPOS>ATOM
      1 C         135.4263  140.8264  156.3005 C.ar    1  UNL1        0.1028
      2 C         135.3213  141.5155  154.9723 C.ar    1  UNL1        0.0131
      3 C         136.4879  142.2905  154.4351 C.ar    1  UNL1       -0.0015
      4 C         137.9001  142.5703  154.9789 C.ar    1  UNL1        0.0035
      5 C         137.0510  141.7246  155.8809 C.ar    1  UNL1        0.0358
      6 C         136.6979  140.9123  157.0915 C.ar    1  UNL1        0.1545
      7 O         136.8947  140.2573  158.4264 O.3     1  UNL1       -0.4528
      8 C         137.6115  139.8590  159.6826 C.ar    1  UNL1        0.1450
      9 C         137.5501  138.9192  161.3418 C.ar    1  UNL1        0.0372
     10 C         138.4752  138.6635  162.4945 C.ar    1  UNL1       -0.0014
     11 C         139.8611  139.2374  162.4854 C.ar    1  UNL1       -0.0243
     12 C         140.1059  140.0275  161.2342 C.ar    1  UNL1       -0.0052
     13 C         138.7391  139.7784  160.6684 C.ar    1  UNL1        0.0345
     14 C         141.5036  140.5686  161.2935 C.3     1  UNL1        0.0980
     15 C         142.1228  140.1127  162.5815 C.3     1  UNL1        0.0290
     16 C         141.1077  139.2900  163.3182 C.3     1  UNL1        0.0281
     17 N         142.7197  141.3191  160.8375 N.am    1  UNL1       -0.2763
     18 C         144.1184  141.6620  161.2570 C.3     1  UNL1        0.0956
     19 C         144.7313  142.5073  160.1800 C.3     1  UNL1        0.0466
     20 C         143.9219  142.9771  158.7249 C.3     1  UNL1        0.1337
     21 N         143.7250  143.6322  157.3899 N.3     1  UNL1       -0.2863
     22 C         143.0082  144.0304  156.1339 C.3     1  UNL1        0.1151
     23 C         141.8806  144.1111  155.1479 C.ar    1  UNL1        0.0739
     24 C         142.6387  144.9606  154.1714 C.ar    1  UNL1        0.1147
     25 N         141.7405  145.2364  153.0021 N.ar    1  UNL1       -0.2226
     26 C         140.4273  144.5574  153.2560 C.ar    1  UNL1        0.1786
     27 N         140.5139  143.8619  154.5822 N.ar    1  UNL1       -0.3070
     28 C         139.1161  143.3209  154.5229 C.3     1  UNL1        0.1341
     29 C         143.5689  142.1649  159.9355 C.2     1  UNL1        0.2401
     30 O         144.1457  142.1005  160.4819 O.2     1  UNL1       -0.2734
     31 H         144.5298  143.2044  156.9322 H       1  UNL1        0.1240
     32 N         133.0933  139.2765  157.3750 N.1     1  UNL1       -0.1907
     33 C         134.2598  140.0515  156.8377 C.1     1  UNL1        0.1035
@<TRIPOS>BOND
     1    32    33    3
     2    33     1    1
     3     1     2   ar
     4     2     3   ar
     5     3     4   ar
     6     4     5   ar
     7     5     6   ar
     8     6     7    1
     9     7     8    1
    10     8     9   ar
    11     9    10   ar
    12    10    11   ar
    13    11    12   ar
    14    12    13   ar
    15    12    14    1
    16    14    15    1
    17    15    16    1
    18    14    17    1
    19    17    18    1
    20    18    19    1
    21    20    19    1
    22    20    21    1
    23    21    22    1
    24    22    23    1
    25    23    24   ar
    26    24    25   ar
    27    25    26   ar
    28    26    27   ar
    29    27    28    1
    30    20    29    1
    31    29    30    2
    32     6     1   ar
    33    13     8   ar
    34    29    17   am
    35    28     4    1
    36    16    11    1
    37    27    23   ar
    38    21    31    1
@<TRIPOS>MOLECULE
*****
 33 38 0 0 0
SMALL
GASTEIGER

@<TRIPOS>ATOM
      1 C         138.0640  140.9786  156.5831 C.ar    1  UNL1        0.1028
      2 C         138.7341  141.0628  155.2439 C.ar    1  UNL1        0.0131
      3 C         140.2050  141.3442  155.1574 C.ar    1  UNL1       -0.0015
      4 C         141.2893  141.5898  156.2215 C.ar    1  UNL1        0.0035
      5 C         139.9208  141.3443  156.7844 C.ar    1  UNL1        0.0358
      6 C         138.8647  141.1757  157.8361 C.ar    1  UNL1        0.1545
      7 O         138.2818  141.1097  159.2166 O.3     1  UNL1       -0.4528
      8 C         138.2609  141.1564  160.7158 C.ar    1  UNL1        0.1450
      9 C         137.2326  141.0118  162.3164 C.ar    1  UNL1        0.0372
     10 C         137.4787  141.1092  163.7929 C.ar    1  UNL1       -0.0014
     11 C         138.8593  141.3934  164.3059 C.ar    1  UNL1       -0.0243
     12 C         139.8316  141.5431  163.1736 C.ar    1  UNL1       -0.0052
     13 C         138.8051  141.3086  162.1053 C.ar    1  UNL1        0.0345
     14 C         141.1841  141.8243  163.7581 C.3     1  UNL1        0.0980
     15 C         141.0477  141.8484  165.2517 C.3     1  UNL1        0.0290
     16 C         139.6109  141.5821  165.5903 C.3     1  UNL1        0.0281
     17 N         142.6567  142.1093  163.7698 N.am    1  UNL1       -0.2763
     18 C         143.8003  142.3620  164.7071 C.3     1  UNL1        0.0956
     19 C         145.0363  142.5731  163.8840 C.3     1  UNL1        0.0466
     20 C         145.0814  142.5233  162.1552 C.3     1  UNL1        0.1337
     21 N         145.6643  142.5893  160.7746 N.3     1  UNL1       -0.2863
     22 C         145.6852  142.5427  159.2755 C.3     1  UNL1        0.1151
     23 C         145.1410  142.3905  157.8860 C.ar    1  UNL1        0.0739
     24 C         146.4626  142.6233  157.2158 C.ar    1  UNL1        0.1147
     25 N         146.2529  142.5326  155.7333 N.ar    1  UNL1       -0.2226
     26 C         144.8017  142.2438  155.4872 C.ar    1  UNL1        0.1786
     27 N         144.1145  142.1560  156.8177 N.ar    1  UNL1       -0.3070
     28 C         142.7619  141.8748  156.2332 C.3     1  UNL1        0.1341
     29 C         144.0253  142.3548  163.2070 C.2     1  UNL1        0.2401
     30 O         144.2793  142.4293  163.9589 O.2     1  UNL1       -0.2734
     31 H         146.3877  141.8854  160.9215 H       1  UNL1        0.1240
     32 N         135.1223  140.4159  156.7560 N.1     1  UNL1       -0.1907
     33 C         136.5931  140.6972  156.6696 C.1     1  UNL1        0.1035
@<TRIPOS>BOND
     1    32    33    3
     2    33     1    1
     3     1     2   ar
     4     2     3   ar
     5     3     4   ar
     6     4     5   ar
     7     5     6   ar
     8     6     7    1
     9     7     8    1
    10     8     9   ar
    11     9    10   ar
    12    10    11   ar
    13    11    12   ar
    14    12    13   ar
    15    12    14    1
    16    14    15    1
    17    15    16    1
    18    14    17    1
    19    17    18    1
    20    18    19    1
    21    20    19    1
    22    20    21    1
    23    21    22    1
    24    22    23    1
    25    23    24   ar
    26    24    25   ar
    27    25    26   ar
    28    26    27   ar
    29    27    28    1
    30    20    29    1
    31    29    30    2
    32     6     1   ar
    33    13     8   ar
    34    29    17   am
    35    28     4    1
    36    16    11    1
    37    27    23   ar
    38    21    31    1
@<TRIPOS>MOLECULE
*****
 33 38 0 0 0
SMALL
GASTEIGER

@<TRIPOS>ATOM
      1 C         140.5810  145.4213  154.9570 C.ar    1  UNL1        0.1028
      2 C         140.1381  146.6177  155.7459 C.ar    1  UNL1        0.0131
      3 C         140.0464  146.5382  157.2410 C.ar    1  UNL1       -0.0015
      4 C         140.3269  145.4103  158.2498 C.ar    1  UNL1        0.0035
      5 C         140.5611  145.0267  156.8187 C.ar    1  UNL1        0.0358
      6 C         140.9323  144.1454  155.6631 C.ar    1  UNL1        0.1545
      7 O         141.3840  142.9004  154.9590 O.3     1  UNL1       -0.4528
      8 C         141.8476  141.4812  154.8134 C.ar    1  UNL1        0.1450
      9 C         142.3870  140.0764  153.6405 C.ar    1  UNL1        0.0372
     10 C         142.8317  138.6495  153.7670 C.ar    1  UNL1       -0.0014
     11 C         142.9291  138.0115  155.1211 C.ar    1  UNL1       -0.0243
     12 C         142.5367  138.9784  156.1986 C.ar    1  UNL1       -0.0052
     13 C         142.2523  140.1041  155.2488 C.ar    1  UNL1        0.0345
     14 C         142.6573  138.2758  157.5184 C.3     1  UNL1        0.0980
     15 C         143.1243  136.8746  157.2565 C.3     1  UNL1        0.0290
     16 C         143.2922  136.7112  155.7749 C.3     1  UNL1        0.0281
     17 N         142.5959  138.1031  159.0071 N.am    1  UNL1       -0.2763
     18 C         142.8346  137.0889  160.0863 C.3     1  UNL1        0.0956
     19 C         142.5260  137.7337  161.4049 C.3     1  UNL1        0.0466
     20 C         141.9905  139.3680  161.5938 C.3     1  UNL1        0.1337
     21 N         141.5387  140.6131  162.2980 N.3     1  UNL1       -0.2863
     22 C         141.0752  142.0322  162.4434 C.3     1  UNL1        0.1151
     23 C         140.6704  143.4094  162.0082 C.ar    1  UNL1        0.0739
     24 C         140.4053  143.8998  163.4007 C.ar    1  UNL1        0.1147
     25 N         139.9570  145.3285  163.3115 N.ar    1  UNL1       -0.2226
     26 C         139.9452  145.7211  161.8638 C.ar    1  UNL1        0.1786
     27 N         140.3861  144.5350  161.0583 N.ar    1  UNL1       -0.3070
     28 C         140.2655  145.2376  159.7385 C.3     1  UNL1        0.1341
     29 C         142.3617  138.4866  160.4383 C.2     1  UNL1        0.2401
     30 O         142.5826  137.7458  160.6328 O.2     1  UNL1       -0.2734
     31 H         142.3419  140.6900  162.9220 H       1  UNL1        0.1240
     32 N         140.7642  145.5802  151.9668 N.1     1  UNL1       -0.1907
     33 C         140.6726  145.5008  153.4619 C.1     1  UNL1        0.1035
@<TRIPOS>BOND
     1    32    33    3
     2    33     1    1
     3     1     2   ar
     4     2     3   ar
     5     3     4   ar
     6     4     5   ar
     7     5     6   ar
     8     6     7    1
     9     7     8    1
    10     8     9   ar
    11     9    10   ar
    12    10    11   ar
    13    11    12   ar
    14    12    13   ar
    15    12    14    1
    16    14    15    1
    17    15    16    1
    18    14    17    1
    19    17    18    1
    20    18    19    1
    21    20    19    1
    22    20    21    1
    23    21    22    1
    24    22    23    1
    25    23    24   ar
    26    24    25   ar
    27    25    26   ar
    28    26    27   ar
    29    27    28    1
    30    20    29    1
    31    29    30    2
    32     6     1   ar
    33    13     8   ar
    34    29    17   am
    35    28     4    1
    36    16    11    1
    37    27    23   ar
    38    21    31    1
