@<TRIPOS>MOLECULE
*****
 37 40 0 0 0
SMALL
GASTEIGER

@<TRIPOS>ATOM
      1 N         140.5025  140.6108  168.0109 N.ar    1  UNL1       -0.2508
      2 N         139.8097  141.7325  167.2954 N.ar    1  UNL1       -0.1678
      3 C         140.5416  141.9847  166.0106 C.ar    1  UNL1        0.1194
      4 C         141.6866  141.0190  165.9320 C.ar    1  UNL1        0.0411
      5 C         142.7481  140.8031  164.8944 C.ar    1  UNL1        0.0402
      6 C         143.7855  139.7380  165.0931 C.ar    1  UNL1        0.1444
      7 C         143.7613  138.8889  166.3294 C.ar    1  UNL1        0.0386
      8 C         142.6998  139.1048  167.3670 C.ar    1  UNL1        0.0219
      9 C         141.6625  140.1698  167.1683 C.ar    1  UNL1        0.0796
     10 C         140.1901  143.0208  164.9845 C.ar    1  UNL1        0.0957
     11 C         139.1142  144.0258  165.2714 C.ar    1  UNL1        0.1191
     12 N         138.7627  145.0619  164.2452 N.ar    1  UNL1       -0.2223
     13 C         139.4871  145.0931  162.9322 C.ar    1  UNL1        0.1784
     14 N         139.3595  145.9896  161.7364 N.ar    1  UNL1       -0.2236
     15 C         140.3565  145.5388  160.7104 C.ar    1  UNL1        0.1066
     16 C         141.1004  144.3636  161.2721 C.ar    1  UNL1        0.0910
     17 C         140.5631  144.0881  162.6452 C.ar    1  UNL1        0.0988
     18 N         140.9146  143.0520  163.6713 N.ar    1  UNL1       -0.3481
     19 H         141.6208  142.3924  163.4830 H       1  UNL1        0.1661
     20 C         142.1903  143.5982  160.5818 C.2     1  UNL1        0.2488
     21 O         143.5872  143.6255  161.1274 O.2     1  UNL1       -0.2700
     22 N         141.8831  142.8055  159.3460 N.am    1  UNL1       -0.3039
     23 H         140.9662  142.7876  158.9879 H       1  UNL1        0.1496
     24 C         142.9730  142.0402  158.6558 C.3     1  UNL1        0.0572
     25 C         142.5907  140.8071  159.4195 C.3     1  UNL1        0.0196
     26 C         143.3553  143.2733  157.8920 C.3     1  UNL1        0.0196
     27 C         144.0629  141.2748  157.9656 C.3     1  UNL1        0.0196
     28 C         140.1051  140.0317  169.3363 C.3     1  UNL1        0.1289
     29 C         140.9161  140.3358  170.5611 C.3     1  UNL1        0.0437
     30 C         140.8182  141.6849  171.2096 C.3     1  UNL1        0.0742
     31 C         140.4990  143.9547  169.9866 C.3     1  UNL1        0.0897
     32 N         141.4024  142.8877  170.5301 N.3     1  UNL1       -0.2703
     33 C         142.8901  143.0235  170.3940 C.3     1  UNL1        0.0897
     34 O         144.8470  139.5221  164.0555 O.3     1  UNL1       -0.4236
     35 C         145.3043  140.6669  163.2009 C.3     1  UNL1        0.5087
     36 F         146.2330  141.7004  163.7658 F       1  UNL1       -0.1550
     37 F         144.8328  140.7780  161.7812 F       1  UNL1       -0.1550
@<TRIPOS>BOND
     1    31    32    1
     2    32    33    1
     3    32    30    1
     4    30    29    1
     5    29    28    1
     6    28     1    1
     7     1     2   ar
     8     2     3   ar
     9     3    10    1
    10    10    11   ar
    11    11    12   ar
    12    12    13   ar
    13    13    14   ar
    14    14    15   ar
    15    15    16   ar
    16    16    20    1
    17    20    21    2
    18    20    22   am
    19    22    24    1
    20    24    25    1
    21    24    26    1
    22    24    27    1
    23    16    17   ar
    24    17    18   ar
    25     3     4   ar
    26     4     5   ar
    27     5     6   ar
    28     6    34    1
    29    34    35    1
    30    35    36    1
    31    35    37    1
    32     6     7   ar
    33     7     8   ar
    34     8     9   ar
    35     9     1   ar
    36    18    10   ar
    37     9     4   ar
    38    17    13    1
    39    22    23    1
    40    18    19    1
@<TRIPOS>MOLECULE
*****
 37 40 0 0 0
SMALL
GASTEIGER

@<TRIPOS>ATOM
      1 N         142.4990  141.3688  167.9088 N.ar    1  UNL1       -0.2508
      2 N         141.8540  142.5745  167.2920 N.ar    1  UNL1       -0.1678
      3 C         141.5531  142.2562  165.8574 C.ar    1  UNL1        0.1194
      4 C         142.0121  140.8539  165.5875 C.ar    1  UNL1        0.0411
      5 C         141.9733  140.0055  164.3511 C.ar    1  UNL1        0.0402
      6 C         142.5191  138.6087  164.3826 C.ar    1  UNL1        0.1444
      7 C         143.1036  138.0603  165.6504 C.ar    1  UNL1        0.0386
      8 C         143.1425  138.9087  166.8868 C.ar    1  UNL1        0.0219
      9 C         142.5967  140.3055  166.8554 C.ar    1  UNL1        0.0796
     10 C         140.9067  143.1784  164.8665 C.ar    1  UNL1        0.0957
     11 C         139.8290  144.1217  165.3121 C.ar    1  UNL1        0.1191
     12 N         139.1826  145.0439  164.3212 N.ar    1  UNL1       -0.2223
     13 C         139.6139  145.0227  162.8847 C.ar    1  UNL1        0.1784
     14 N         139.1628  145.8088  161.6896 N.ar    1  UNL1       -0.2236
     15 C         139.9617  145.3514  160.5053 C.ar    1  UNL1        0.1066
     16 C         140.9066  144.2825  160.9685 C.ar    1  UNL1        0.0910
     17 C         140.6916  144.0793  162.4391 C.ar    1  UNL1        0.0988
     18 N         141.3380  143.1571  163.4299 N.ar    1  UNL1       -0.3481
     19 H         142.0454  142.5380  163.1374 H       1  UNL1        0.1661
     20 C         141.8932  143.5460  160.1116 C.2     1  UNL1        0.2488
     21 O         142.7680  144.3021  159.1562 O.2     1  UNL1       -0.2700
     22 N         142.0049  142.0534  160.2101 N.am    1  UNL1       -0.3039
     23 H         141.4307  141.5571  160.8372 H       1  UNL1        0.1496
     24 C         142.9915  141.3170  159.3532 C.3     1  UNL1        0.0572
     25 C         144.0307  141.4620  160.4251 C.3     1  UNL1        0.0196
     26 C         141.9523  141.1720  158.2813 C.3     1  UNL1        0.0196
     27 C         143.9782  140.5806  158.4963 C.3     1  UNL1        0.0196
     28 C         142.9645  141.2478  169.3296 C.3     1  UNL1        0.1289
     29 C         142.2938  140.2798  170.2587 C.3     1  UNL1        0.0437
     30 C         141.1857  140.7462  171.1556 C.3     1  UNL1        0.0742
     31 C         138.8874  140.4948  169.9706 C.3     1  UNL1        0.0897
     32 N         139.9538  141.3659  170.5655 N.3     1  UNL1       -0.2703
     33 C         139.7882  142.8568  170.5702 C.3     1  UNL1        0.0897
     34 O         142.4803  137.7603  163.1461 O.3     1  UNL1       -0.4236
     35 C         141.2721  137.7847  162.2574 C.3     1  UNL1        0.5087
     36 F         141.3855  138.2945  160.8513 F       1  UNL1       -0.1550
     37 F         139.9505  137.2992  162.7749 F       1  UNL1       -0.1550
@<TRIPOS>BOND
     1    31    32    1
     2    32    33    1
     3    32    30    1
     4    30    29    1
     5    29    28    1
     6    28     1    1
     7     1     2   ar
     8     2     3   ar
     9     3    10    1
    10    10    11   ar
    11    11    12   ar
    12    12    13   ar
    13    13    14   ar
    14    14    15   ar
    15    15    16   ar
    16    16    20    1
    17    20    21    2
    18    20    22   am
    19    22    24    1
    20    24    25    1
    21    24    26    1
    22    24    27    1
    23    16    17   ar
    24    17    18   ar
    25     3     4   ar
    26     4     5   ar
    27     5     6   ar
    28     6    34    1
    29    34    35    1
    30    35    36    1
    31    35    37    1
    32     6     7   ar
    33     7     8   ar
    34     8     9   ar
    35     9     1   ar
    36    18    10   ar
    37     9     4   ar
    38    17    13    1
    39    22    23    1
    40    18    19    1
@<TRIPOS>MOLECULE
*****
 37 40 0 0 0
SMALL
GASTEIGER

@<TRIPOS>ATOM
      1 N         140.5235  143.0773  159.5877 N.ar    1  UNL1       -0.2508
      2 N         139.5338  142.4260  160.5077 N.ar    1  UNL1       -0.1678
      3 C         140.2994  141.7229  161.5891 C.ar    1  UNL1        0.1194
      4 C         141.7622  141.9396  161.3375 C.ar    1  UNL1        0.0411
      5 C         142.9859  141.4829  162.0750 C.ar    1  UNL1        0.0402
      6 C         144.3481  141.8633  161.5754 C.ar    1  UNL1        0.1444
      7 C         144.4866  142.7004  160.3385 C.ar    1  UNL1        0.0386
      8 C         143.2629  143.1572  159.6011 C.ar    1  UNL1        0.0219
      9 C         141.9007  142.7768  160.1006 C.ar    1  UNL1        0.0796
     10 C         139.7063  140.9403  162.7231 C.ar    1  UNL1        0.0957
     11 C         138.7074  139.8565  162.4449 C.ar    1  UNL1        0.1191
     12 N         138.1143  139.0739  163.5788 N.ar    1  UNL1       -0.2223
     13 C         138.5202  139.3752  164.9911 C.ar    1  UNL1        0.1784
     14 N         138.1087  138.7761  166.3032 N.ar    1  UNL1       -0.2236
     15 C         138.8533  139.4896  167.3924 C.ar    1  UNL1        0.1066
     16 C         139.7250  140.5297  166.7535 C.ar    1  UNL1        0.0910
     17 C         139.5191  140.4590  165.2694 C.ar    1  UNL1        0.0988
     18 N         140.1122  141.2416  164.1354 N.ar    1  UNL1       -0.3481
     19 H         140.7678  141.9530  164.3181 H       1  UNL1        0.1661
     20 C         140.6416  141.4747  167.4725 C.2     1  UNL1        0.2488
     21 O         141.3372  142.5668  166.7151 O.2     1  UNL1       -0.2700
     22 N         140.8627  141.3275  168.9488 N.am    1  UNL1       -0.3039
     23 H         140.4062  140.6108  169.4458 H       1  UNL1        0.1496
     24 C         141.7793  142.2724  169.6677 C.3     1  UNL1        0.0572
     25 C         142.9178  141.3151  169.4744 C.3     1  UNL1        0.0196
     26 C         140.6408  143.2299  169.8610 C.3     1  UNL1        0.0196
     27 C         142.6960  143.2174  170.3866 C.3     1  UNL1        0.0196
     28 C         140.1939  143.8871  158.3689 C.3     1  UNL1        0.1289
     29 C         140.4377  145.3673  158.3633 C.3     1  UNL1        0.0437
     30 C         141.1959  145.9982  157.2332 C.3     1  UNL1        0.0742
     31 C         139.6929  147.2015  155.4889 C.3     1  UNL1        0.0897
     32 N         140.5880  146.0576  155.8632 N.3     1  UNL1       -0.2703
     33 C         140.8754  144.9731  154.8675 C.3     1  UNL1        0.0897
     34 O         145.5720  141.4065  162.3129 O.3     1  UNL1       -0.4236
     35 C         145.5544  141.3134  163.8099 C.3     1  UNL1        0.5087
     36 F         145.4990  139.9712  164.4772 F       1  UNL1       -0.1550
     37 F         145.5923  142.5625  164.6395 F       1  UNL1       -0.1550
@<TRIPOS>BOND
     1    31    32    1
     2    32    33    1
     3    32    30    1
     4    30    29    1
     5    29    28    1
     6    28     1    1
     7     1     2   ar
     8     2     3   ar
     9     3    10    1
    10    10    11   ar
    11    11    12   ar
    12    12    13   ar
    13    13    14   ar
    14    14    15   ar
    15    15    16   ar
    16    16    20    1
    17    20    21    2
    18    20    22   am
    19    22    24    1
    20    24    25    1
    21    24    26    1
    22    24    27    1
    23    16    17   ar
    24    17    18   ar
    25     3     4   ar
    26     4     5   ar
    27     5     6   ar
    28     6    34    1
    29    34    35    1
    30    35    36    1
    31    35    37    1
    32     6     7   ar
    33     7     8   ar
    34     8     9   ar
    35     9     1   ar
    36    18    10   ar
    37     9     4   ar
    38    17    13    1
    39    22    23    1
    40    18    19    1
@<TRIPOS>MOLECULE
*****
 37 40 0 0 0
SMALL
GASTEIGER

@<TRIPOS>ATOM
      1 N         140.4239  143.1613  159.6921 N.ar    1  UNL1       -0.2508
      2 N         139.4471  142.5189  160.6318 N.ar    1  UNL1       -0.1678
      3 C         140.2280  141.7981  161.6905 C.ar    1  UNL1        0.1194
      4 C         141.6874  141.9951  161.4050 C.ar    1  UNL1        0.0411
      5 C         142.9216  141.5162  162.1101 C.ar    1  UNL1        0.0402
      6 C         144.2769  141.8798  161.5802 C.ar    1  UNL1        0.1444
      7 C         144.3980  142.7223  160.3450 C.ar    1  UNL1        0.0386
      8 C         143.1637  143.2012  159.6399 C.ar    1  UNL1        0.0219
      9 C         141.8084  142.8377  160.1699 C.ar    1  UNL1        0.0796
     10 C         139.6509  141.0174  162.8339 C.ar    1  UNL1        0.0957
     11 C         138.6287  139.9510  162.5738 C.ar    1  UNL1        0.1191
     12 N         138.0516  139.1703  163.7172 N.ar    1  UNL1       -0.2223
     13 C         138.4967  139.4560  165.1209 C.ar    1  UNL1        0.1784
     14 N         138.1083  138.8548  166.4390 N.ar    1  UNL1       -0.2236
     15 C         138.8905  139.5496  167.5139 C.ar    1  UNL1        0.1066
     16 C         139.7622  140.5803  166.8600 C.ar    1  UNL1        0.0910
     17 C         139.5189  140.5225  165.3811 C.ar    1  UNL1        0.0988
     18 N         140.0960  141.3032  164.2376 N.ar    1  UNL1       -0.3481
     19 H         140.7669  142.0032  164.4084 H       1  UNL1        0.1661
     20 C         140.7109  141.5063  167.5620 C.2     1  UNL1        0.2488
     21 O         141.4296  142.5715  166.7881 O.2     1  UNL1       -0.2700
     22 N         140.9408  141.3671  169.0377 N.am    1  UNL1       -0.3039
     23 H         140.4690  140.6680  169.5456 H       1  UNL1        0.1496
     24 C         141.8894  142.2931  169.7395 C.3     1  UNL1        0.0572
     25 C         140.7825  143.2888  169.9220 C.3     1  UNL1        0.0196
     26 C         142.9964  141.2974  169.5571 C.3     1  UNL1        0.0196
     27 C         142.8380  143.2192  170.4414 C.3     1  UNL1        0.0196
     28 C         140.0771  143.9832  158.4861 C.3     1  UNL1        0.1289
     29 C         140.0069  143.3380  157.1337 C.3     1  UNL1        0.0437
     30 C         140.0377  141.8432  157.0133 C.3     1  UNL1        0.0742
     31 C         137.4651  141.4918  157.1024 C.3     1  UNL1        0.0897
     32 N         138.8516  141.0317  157.4429 N.3     1  UNL1       -0.2703
     33 C         139.0519  139.7601  158.2129 C.3     1  UNL1        0.0897
     34 O         145.5112  141.4009  162.2853 O.3     1  UNL1       -0.4236
     35 C         145.5186  141.2711  163.7797 C.3     1  UNL1        0.5087
     36 F         145.5230  142.5004  164.6392 F       1  UNL1       -0.1550
     37 F         145.5216  139.9121  164.4145 F       1  UNL1       -0.1550
@<TRIPOS>BOND
     1    31    32    1
     2    32    33    1
     3    32    30    1
     4    30    29    1
     5    29    28    1
     6    28     1    1
     7     1     2   ar
     8     2     3   ar
     9     3    10    1
    10    10    11   ar
    11    11    12   ar
    12    12    13   ar
    13    13    14   ar
    14    14    15   ar
    15    15    16   ar
    16    16    20    1
    17    20    21    2
    18    20    22   am
    19    22    24    1
    20    24    25    1
    21    24    26    1
    22    24    27    1
    23    16    17   ar
    24    17    18   ar
    25     3     4   ar
    26     4     5   ar
    27     5     6   ar
    28     6    34    1
    29    34    35    1
    30    35    36    1
    31    35    37    1
    32     6     7   ar
    33     7     8   ar
    34     8     9   ar
    35     9     1   ar
    36    18    10   ar
    37     9     4   ar
    38    17    13    1
    39    22    23    1
    40    18    19    1
@<TRIPOS>MOLECULE
*****
 37 40 0 0 0
SMALL
GASTEIGER

@<TRIPOS>ATOM
      1 N         135.9480  141.6227  155.8695 N.ar    1  UNL1       -0.2508
      2 N         136.4613  140.6034  156.8429 N.ar    1  UNL1       -0.1678
      3 C         137.7522  141.1142  157.4110 C.ar    1  UNL1        0.1194
      4 C         138.0367  142.4490  156.7887 C.ar    1  UNL1        0.0411
      5 C         139.1670  143.4189  156.9666 C.ar    1  UNL1        0.0402
      6 C         139.1822  144.7031  156.1916 C.ar    1  UNL1        0.1444
      7 C         138.0671  145.0174  155.2389 C.ar    1  UNL1        0.0386
      8 C         136.9367  144.0475  155.0611 C.ar    1  UNL1        0.0219
      9 C         136.9215  142.7633  155.8360 C.ar    1  UNL1        0.0796
     10 C         138.6084  140.4131  158.4237 C.ar    1  UNL1        0.0957
     11 C         139.4444  139.2371  158.0138 C.ar    1  UNL1        0.1191
     12 N         140.3005  138.5360  159.0264 N.ar    1  UNL1       -0.2223
     13 C         140.3208  139.0110  160.4491 C.ar    1  UNL1        0.1784
     14 N         141.0603  138.5235  161.6596 N.ar    1  UNL1       -0.2236
     15 C         140.6814  139.3981  162.8177 C.ar    1  UNL1        0.1066
     16 C         139.7077  140.4263  162.3230 C.ar    1  UNL1        0.0910
     17 C         139.4848  140.1870  160.8591 C.ar    1  UNL1        0.0988
     18 N         138.6286  140.8881  159.8464 N.ar    1  UNL1       -0.3481
     19 H         138.0800  141.6600  160.1155 H       1  UNL1        0.1661
     20 C         139.0690  141.5045  163.1475 C.2     1  UNL1        0.2488
     21 O         137.6270  141.3902  163.5444 O.2     1  UNL1       -0.2700
     22 N         139.8723  142.6969  163.5750 N.am    1  UNL1       -0.3039
     23 H         140.8187  142.7719  163.3145 H       1  UNL1        0.1496
     24 C         139.2336  143.7750  164.3994 C.3     1  UNL1        0.0572
     25 C         139.7096  143.0996  165.6513 C.3     1  UNL1        0.0196
     26 C         138.7576  144.4504  163.1474 C.3     1  UNL1        0.0196
     27 C         138.5949  144.8531  165.2239 C.3     1  UNL1        0.0196
     28 C         134.6831  141.5195  155.0699 C.3     1  UNL1        0.1289
     29 C         133.7021  140.4213  155.3564 C.3     1  UNL1        0.0437
     30 C         132.4787  140.7037  156.1769 C.3     1  UNL1        0.0742
     31 C         133.2166  139.1629  158.1342 C.3     1  UNL1        0.0897
     32 N         132.1286  139.8135  157.3323 N.3     1  UNL1       -0.2703
     33 C         130.6907  139.5738  157.6858 C.3     1  UNL1        0.0897
     34 O         140.3125  145.6731  156.3694 O.3     1  UNL1       -0.4236
     35 C         140.9313  145.8638  157.7225 C.3     1  UNL1        0.5087
     36 F         140.0659  145.8786  158.9476 F       1  UNL1       -0.1550
     37 F         142.4155  146.0398  157.8504 F       1  UNL1       -0.1550
@<TRIPOS>BOND
     1    31    32    1
     2    32    33    1
     3    32    30    1
     4    30    29    1
     5    29    28    1
     6    28     1    1
     7     1     2   ar
     8     2     3   ar
     9     3    10    1
    10    10    11   ar
    11    11    12   ar
    12    12    13   ar
    13    13    14   ar
    14    14    15   ar
    15    15    16   ar
    16    16    20    1
    17    20    21    2
    18    20    22   am
    19    22    24    1
    20    24    25    1
    21    24    26    1
    22    24    27    1
    23    16    17   ar
    24    17    18   ar
    25     3     4   ar
    26     4     5   ar
    27     5     6   ar
    28     6    34    1
    29    34    35    1
    30    35    36    1
    31    35    37    1
    32     6     7   ar
    33     7     8   ar
    34     8     9   ar
    35     9     1   ar
    36    18    10   ar
    37     9     4   ar
    38    17    13    1
    39    22    23    1
    40    18    19    1
@<TRIPOS>MOLECULE
*****
 37 40 0 0 0
SMALL
GASTEIGER

@<TRIPOS>ATOM
      1 N         141.9801  139.3507  160.2391 N.ar    1  UNL1       -0.2508
      2 N         140.8909  138.8674  161.1502 N.ar    1  UNL1       -0.1678
      3 C         141.1485  139.4268  162.5179 C.ar    1  UNL1        0.1194
      4 C         142.3968  140.2559  162.4521 C.ar    1  UNL1        0.0411
      5 C         143.1319  141.0476  163.4926 C.ar    1  UNL1        0.0402
      6 C         144.3809  141.7923  163.1248 C.ar    1  UNL1        0.1444
      7 C         144.8949  141.7453  161.7164 C.ar    1  UNL1        0.0386
      8 C         144.1598  140.9536  160.6758 C.ar    1  UNL1        0.0219
      9 C         142.9108  140.2089  161.0437 C.ar    1  UNL1        0.0796
     10 C         140.3057  139.1975  163.7374 C.ar    1  UNL1        0.0957
     11 C         139.1547  138.2373  163.6838 C.ar    1  UNL1        0.1191
     12 N         138.3119  138.0080  164.9033 N.ar    1  UNL1       -0.2223
     13 C         138.6202  138.7388  166.1764 C.ar    1  UNL1        0.1784
     14 N         137.9711  138.7175  167.5285 N.ar    1  UNL1       -0.2236
     15 C         138.7210  139.6645  168.4177 C.ar    1  UNL1        0.1066
     16 C         139.8337  140.2711  167.6152 C.ar    1  UNL1        0.0910
     17 C         139.7714  139.6990  166.2300 C.ar    1  UNL1        0.0988
     18 N         140.6141  139.9284  165.0105 N.ar    1  UNL1       -0.3481
     19 H         141.3697  140.5586  165.0457 H       1  UNL1        0.1661
     20 C         140.8331  141.2739  168.1109 C.2     1  UNL1        0.2488
     21 O         141.5316  142.1795  167.1403 O.2     1  UNL1       -0.2700
     22 N         141.1342  141.3709  169.5772 N.am    1  UNL1       -0.3039
     23 H         140.6758  140.7766  170.2142 H       1  UNL1        0.1496
     24 C         142.1336  142.3736  170.0728 C.3     1  UNL1        0.0572
     25 C         143.2117  141.3331  170.0038 C.3     1  UNL1        0.0196
     26 C         141.0554  143.4143  170.1418 C.3     1  UNL1        0.0196
     27 C         143.1331  143.3763  170.5684 C.3     1  UNL1        0.0196
     28 C         142.1149  139.0319  158.7795 C.3     1  UNL1        0.1289
     29 C         142.6565  137.7008  158.3495 C.3     1  UNL1        0.0437
     30 C         142.6380  137.3164  156.8997 C.3     1  UNL1        0.0742
     31 C         143.3042  134.8129  157.0948 C.3     1  UNL1        0.0897
     32 N         142.4338  135.8834  156.5064 N.3     1  UNL1       -0.2703
     33 C         141.3592  135.5209  155.5246 C.3     1  UNL1        0.0897
     34 O         145.1161  142.5840  164.1654 O.3     1  UNL1       -0.4236
     35 C         144.3652  143.5222  165.0632 C.3     1  UNL1        0.5087
     36 F         144.3298  143.2771  166.5426 F       1  UNL1       -0.1550
     37 F         143.6497  144.7053  164.4816 F       1  UNL1       -0.1550
@<TRIPOS>BOND
     1    31    32    1
     2    32    33    1
     3    32    30    1
     4    30    29    1
     5    29    28    1
     6    28     1    1
     7     1     2   ar
     8     2     3   ar
     9     3    10    1
    10    10    11   ar
    11    11    12   ar
    12    12    13   ar
    13    13    14   ar
    14    14    15   ar
    15    15    16   ar
    16    16    20    1
    17    20    21    2
    18    20    22   am
    19    22    24    1
    20    24    25    1
    21    24    26    1
    22    24    27    1
    23    16    17   ar
    24    17    18   ar
    25     3     4   ar
    26     4     5   ar
    27     5     6   ar
    28     6    34    1
    29    34    35    1
    30    35    36    1
    31    35    37    1
    32     6     7   ar
    33     7     8   ar
    34     8     9   ar
    35     9     1   ar
    36    18    10   ar
    37     9     4   ar
    38    17    13    1
    39    22    23    1
    40    18    19    1
@<TRIPOS>MOLECULE
*****
 37 40 0 0 0
SMALL
GASTEIGER

@<TRIPOS>ATOM
      1 N         139.4849  138.5834  162.2859 N.ar    1  UNL1       -0.2508
      2 N         140.5664  138.2978  161.2864 N.ar    1  UNL1       -0.1678
      3 C         140.9074  139.5831  160.5926 C.ar    1  UNL1        0.1194
      4 C         140.0367  140.6631  161.1632 C.ar    1  UNL1        0.0411
      5 C         139.9309  142.1294  160.8650 C.ar    1  UNL1        0.0402
      6 C         138.9459  142.9777  161.6133 C.ar    1  UNL1        0.1444
      7 C         138.0667  142.3597  162.6598 C.ar    1  UNL1        0.0386
      8 C         138.1725  140.8935  162.9580 C.ar    1  UNL1        0.0219
      9 C         139.1575  140.0452  162.2097 C.ar    1  UNL1        0.0796
     10 C         141.9382  139.7579  159.5170 C.ar    1  UNL1        0.0957
     11 C         142.8972  140.9096  159.5772 C.ar    1  UNL1        0.1191
     12 N         143.9280  141.0844  158.5015 N.ar    1  UNL1       -0.2223
     13 C         143.9998  140.1073  157.3657 C.ar    1  UNL1        0.1784
     14 N         144.9015  140.0227  156.1700 N.ar    1  UNL1       -0.2236
     15 C         144.4998  138.8186  155.3707 C.ar    1  UNL1        0.1066
     16 C         143.3498  138.1591  156.0725 C.ar    1  UNL1        0.0910
     17 C         143.0407  138.9556  157.3054 C.ar    1  UNL1        0.0988
     18 N         142.0100  138.7808  158.3810 N.ar    1  UNL1       -0.3481
     19 H         141.3805  138.0248  158.3415 H       1  UNL1        0.1661
     20 C         142.6344  136.9205  155.6206 C.2     1  UNL1        0.2488
     21 O         141.3072  136.5603  156.2196 O.2     1  UNL1       -0.2700
     22 N         143.2462  136.0422  154.5698 N.am    1  UNL1       -0.3039
     23 H         144.1173  136.2786  154.1767 H       1  UNL1        0.1496
     24 C         142.5308  134.8037  154.1180 C.3     1  UNL1        0.0572
     25 C         141.8719  135.5848  153.0199 C.3     1  UNL1        0.0196
     26 C         143.1896  134.0224  155.2160 C.3     1  UNL1        0.0196
     27 C         141.8153  133.5651  153.6661 C.3     1  UNL1        0.0196
     28 C         138.8433  137.5828  163.2009 C.3     1  UNL1        0.1289
     29 C         139.4415  137.3074  164.5487 C.3     1  UNL1        0.0437
     30 C         140.9316  137.2469  164.7097 C.3     1  UNL1        0.0742
     31 C         142.9149  138.7898  164.0499 C.3     1  UNL1        0.0897
     32 N         141.7164  138.5098  164.9073 N.3     1  UNL1       -0.2703
     33 C         141.3028  139.4926  165.9623 C.3     1  UNL1        0.0897
     34 O         138.8400  144.4440  161.3152 O.3     1  UNL1       -0.4236
     35 C         139.3473  145.4493  162.3061 C.3     1  UNL1        0.5087
     36 F         139.0453  145.2819  163.7658 F       1  UNL1       -0.1550
     37 F         140.1565  146.6221  161.8373 F       1  UNL1       -0.1550
@<TRIPOS>BOND
     1    31    32    1
     2    32    33    1
     3    32    30    1
     4    30    29    1
     5    29    28    1
     6    28     1    1
     7     1     2   ar
     8     2     3   ar
     9     3    10    1
    10    10    11   ar
    11    11    12   ar
    12    12    13   ar
    13    13    14   ar
    14    14    15   ar
    15    15    16   ar
    16    16    20    1
    17    20    21    2
    18    20    22   am
    19    22    24    1
    20    24    25    1
    21    24    26    1
    22    24    27    1
    23    16    17   ar
    24    17    18   ar
    25     3     4   ar
    26     4     5   ar
    27     5     6   ar
    28     6    34    1
    29    34    35    1
    30    35    36    1
    31    35    37    1
    32     6     7   ar
    33     7     8   ar
    34     8     9   ar
    35     9     1   ar
    36    18    10   ar
    37     9     4   ar
    38    17    13    1
    39    22    23    1
    40    18    19    1
@<TRIPOS>MOLECULE
*****
 37 40 0 0 0
SMALL
GASTEIGER

@<TRIPOS>ATOM
      1 N         143.0103  143.5780  162.9690 N.ar    1  UNL1       -0.2508
      2 N         143.2350  144.0249  161.5548 N.ar    1  UNL1       -0.1678
      3 C         142.0573  143.5843  160.7369 C.ar    1  UNL1        0.1194
      4 C         141.1049  142.8651  161.6455 C.ar    1  UNL1        0.0411
      5 C         139.7774  142.2133  161.3950 C.ar    1  UNL1        0.0402
      6 C         139.0389  141.5576  162.5240 C.ar    1  UNL1        0.1444
      7 C         139.6279  141.5537  163.9035 C.ar    1  UNL1        0.0386
      8 C         140.9554  142.2055  164.1540 C.ar    1  UNL1        0.0219
      9 C         141.6939  142.8612  163.0250 C.ar    1  UNL1        0.0796
     10 C         141.8657  143.8213  159.2682 C.ar    1  UNL1        0.0957
     11 C         140.6461  144.5437  158.7778 C.ar    1  UNL1        0.1191
     12 N         140.4545  144.7807  157.3091 N.ar    1  UNL1       -0.2223
     13 C         141.4826  144.2952  156.3307 C.ar    1  UNL1        0.1784
     14 N         141.5650  144.3820  154.8355 N.ar    1  UNL1       -0.2236
     15 C         142.8356  143.7132  154.4017 C.ar    1  UNL1        0.1066
     16 C         143.5385  143.2130  155.6288 C.ar    1  UNL1        0.0910
     17 C         142.7023  143.5727  156.8210 C.ar    1  UNL1        0.0988
     18 N         142.8939  143.3358  158.2897 N.ar    1  UNL1       -0.3481
     19 H         143.6944  142.8616  158.6115 H       1  UNL1        0.1661
     20 C         144.8478  142.4816  155.6585 C.2     1  UNL1        0.2488
     21 O         144.8737  140.9991  155.8859 O.2     1  UNL1       -0.2700
     22 N         146.1311  143.2326  155.4609 N.am    1  UNL1       -0.3039
     23 H         146.1141  144.2056  155.3117 H       1  UNL1        0.1496
     24 C         147.4403  142.5011  155.4906 C.3     1  UNL1        0.0572
     25 C         147.3459  142.2721  154.0112 C.3     1  UNL1        0.0196
     26 C         147.5347  142.7301  156.9700 C.3     1  UNL1        0.0196
     27 C         148.7496  141.7696  155.5202 C.3     1  UNL1        0.0196
     28 C         143.9391  143.8076  164.1242 C.3     1  UNL1        0.1289
     29 C         144.9203  142.7444  164.5206 C.3     1  UNL1        0.0437
     30 C         145.5252  141.8548  163.4752 C.3     1  UNL1        0.0742
     31 C         144.2793  140.3346  161.7763 C.3     1  UNL1        0.0897
     32 N         144.8751  140.5462  163.1366 N.3     1  UNL1       -0.2703
     33 C         144.8208  139.4491  164.1581 C.3     1  UNL1        0.0897
     34 O         137.7113  140.9057  162.2735 O.3     1  UNL1       -0.4236
     35 C         137.6213  139.7092  161.3733 C.3     1  UNL1        0.5087
     36 F         137.6200  138.3283  161.9591 F       1  UNL1       -0.1550
     37 F         137.5325  139.8936  159.8873 F       1  UNL1       -0.1550
@<TRIPOS>BOND
     1    31    32    1
     2    32    33    1
     3    32    30    1
     4    30    29    1
     5    29    28    1
     6    28     1    1
     7     1     2   ar
     8     2     3   ar
     9     3    10    1
    10    10    11   ar
    11    11    12   ar
    12    12    13   ar
    13    13    14   ar
    14    14    15   ar
    15    15    16   ar
    16    16    20    1
    17    20    21    2
    18    20    22   am
    19    22    24    1
    20    24    25    1
    21    24    26    1
    22    24    27    1
    23    16    17   ar
    24    17    18   ar
    25     3     4   ar
    26     4     5   ar
    27     5     6   ar
    28     6    34    1
    29    34    35    1
    30    35    36    1
    31    35    37    1
    32     6     7   ar
    33     7     8   ar
    34     8     9   ar
    35     9     1   ar
    36    18    10   ar
    37     9     4   ar
    38    17    13    1
    39    22    23    1
    40    18    19    1
@<TRIPOS>MOLECULE
*****
 37 40 0 0 0
SMALL
GASTEIGER

@<TRIPOS>ATOM
      1 N         144.2044  141.7861  162.9390 N.ar    1  UNL1       -0.2508
      2 N         144.2348  141.8731  161.4418 N.ar    1  UNL1       -0.1678
      3 C         143.0590  142.6936  161.0012 C.ar    1  UNL1        0.1194
      4 C         142.3019  143.1138  162.2261 C.ar    1  UNL1        0.0411
      5 C         141.0593  143.9346  162.4056 C.ar    1  UNL1        0.0402
      6 C         140.5247  144.1946  163.7827 C.ar    1  UNL1        0.1444
      7 C         141.2326  143.6337  164.9803 C.ar    1  UNL1        0.0386
      8 C         142.4751  142.8129  164.8008 C.ar    1  UNL1        0.0219
      9 C         143.0098  142.5529  163.4237 C.ar    1  UNL1        0.0796
     10 C         142.7028  143.0342  159.5845 C.ar    1  UNL1        0.0957
     11 C         141.3973  143.7074  159.2804 C.ar    1  UNL1        0.1191
     12 N         141.0411  144.0480  157.8637 N.ar    1  UNL1       -0.2223
     13 C         141.9904  143.7154  156.7510 C.ar    1  UNL1        0.1784
     14 N         141.9127  143.9278  155.2682 N.ar    1  UNL1       -0.2236
     15 C         143.1702  143.3859  154.6557 C.ar    1  UNL1        0.1066
     16 C         144.0251  142.8385  155.7600 C.ar    1  UNL1        0.0910
     17 C         143.2959  143.0422  157.0550 C.ar    1  UNL1        0.0988
     18 N         143.6522  142.7016  158.4717 N.ar    1  UNL1       -0.3481
     19 H         144.5090  142.2597  158.6712 H       1  UNL1        0.1661
     20 C         145.3725  142.1997  155.5979 C.2     1  UNL1        0.2488
     21 O         145.5106  140.7084  155.6825 O.2     1  UNL1       -0.2700
     22 N         146.5819  143.0520  155.3510 N.am    1  UNL1       -0.3039
     23 H         146.4912  144.0308  155.2955 H       1  UNL1        0.1496
     24 C         147.9293  142.4132  155.1889 C.3     1  UNL1        0.0572
     25 C         148.1287  142.4567  156.6749 C.3     1  UNL1        0.0196
     26 C         147.7298  142.3696  153.7028 C.3     1  UNL1        0.0196
     27 C         149.2767  141.7743  155.0268 C.3     1  UNL1        0.0196
     28 C         145.1947  141.0599  163.8003 C.3     1  UNL1        0.1289
     29 C         145.0018  139.6027  164.0997 C.3     1  UNL1        0.0437
     30 C         143.6188  139.0237  164.1484 C.3     1  UNL1        0.0742
     31 C         141.6782  137.7334  163.0001 C.3     1  UNL1        0.0897
     32 N         143.0565  138.3229  162.9474 N.3     1  UNL1       -0.2703
     33 C         143.8725  138.2114  161.6937 C.3     1  UNL1        0.0897
     34 O         139.2821  145.0154  163.9623 O.3     1  UNL1       -0.4236
     35 C         138.3138  144.6806  165.0579 C.3     1  UNL1        0.5087
     36 F         138.2514  145.5335  166.2902 F       1  UNL1       -0.1550
     37 F         137.4081  143.4927  164.9212 F       1  UNL1       -0.1550
@<TRIPOS>BOND
     1    31    32    1
     2    32    33    1
     3    32    30    1
     4    30    29    1
     5    29    28    1
     6    28     1    1
     7     1     2   ar
     8     2     3   ar
     9     3    10    1
    10    10    11   ar
    11    11    12   ar
    12    12    13   ar
    13    13    14   ar
    14    14    15   ar
    15    15    16   ar
    16    16    20    1
    17    20    21    2
    18    20    22   am
    19    22    24    1
    20    24    25    1
    21    24    26    1
    22    24    27    1
    23    16    17   ar
    24    17    18   ar
    25     3     4   ar
    26     4     5   ar
    27     5     6   ar
    28     6    34    1
    29    34    35    1
    30    35    36    1
    31    35    37    1
    32     6     7   ar
    33     7     8   ar
    34     8     9   ar
    35     9     1   ar
    36    18    10   ar
    37     9     4   ar
    38    17    13    1
    39    22    23    1
    40    18    19    1
