@<TRIPOS>MOLECULE
*****
 32 35 0 0 0
SMALL
GASTEIGER

@<TRIPOS>ATOM
      1 C         140.9164  138.8856  163.1793 C.ar    1  UNL1        0.0783
      2 C         141.4853  139.2274  161.8341 C.ar    1  UNL1        0.1053
      3 N         142.0500  140.5942  161.5839 N.ar    1  UNL1       -0.2290
      4 C         142.0459  141.6195  162.6789 C.ar    1  UNL1        0.1322
      5 C         141.4770  141.2777  164.0241 C.ar    1  UNL1        0.0383
      6 C         141.3370  142.0754  165.2866 C.ar    1  UNL1        0.0098
      7 C         140.6856  141.2014  166.3172 C.ar    1  UNL1        0.0296
      8 S         140.4232  139.8636  165.6915 S.2     1  UNL1       -0.0866
      9 C         140.9123  139.9108  164.2743 C.ar    1  UNL1        0.0380
     10 C         140.3548  141.5960  167.7260 C.ar    1  UNL1        0.0060
     11 C         139.6961  140.6110  168.6457 C.ar    1  UNL1        0.0005
     12 C         139.3653  141.0057  170.0546 C.ar    1  UNL1        0.0000
     13 C         139.6932  142.3852  170.5438 C.ar    1  UNL1        0.0000
     14 C         140.3520  143.3702  169.6241 C.ar    1  UNL1        0.0000
     15 C         140.6828  142.9755  168.2152 C.ar    1  UNL1        0.0005
     16 N         141.2435  136.4172  163.9209 N.am    1  UNL1       -0.3253
     17 C         140.3517  137.5187  163.4295 C.2     1  UNL1        0.2448
     18 O         138.8951  137.2532  163.1883 O.2     1  UNL1       -0.2703
     19 H         140.8728  135.5200  164.0851 H       1  UNL1        0.1453
     20 H         142.1994  136.5914  164.0792 H       1  UNL1        0.1453
     21 N         142.6106  142.9864  162.4286 N.pl3   1  UNL1       -0.2909
     22 C         141.6974  144.1211  162.0701 C.3     1  UNL1        0.0900
     23 C         141.1091  144.2039  160.6928 C.3     1  UNL1        0.0226
     24 C         140.1958  145.3386  160.3344 C.3     1  UNL1        0.0188
     25 C         139.8708  146.3903  161.3533 C.3     1  UNL1        0.0687
     26 N         140.4590  146.3075  162.7306 N.3     1  UNL1       -0.2961
     27 C         141.3723  145.1728  163.0890 C.3     1  UNL1        0.0886
     28 H         139.6762  146.2729  163.3836 H       1  UNL1        0.1233
     29 C         144.0886  143.2186  162.5367 C.3     1  UNL1        0.1238
     30 C         144.9252  142.3312  163.4100 C.3     1  UNL1        0.1585
     31 O         146.2948  141.9143  162.9625 O.3     1  UNL1       -0.3802
     32 H         146.2203  141.3473  162.1789 H       1  UNL1        0.2105
@<TRIPOS>BOND
     1    16    17   am
     2    17    18    2
     3    17     1    1
     4     1     2   ar
     5     2     3   ar
     6     3     4   ar
     7     4    21    1
     8    21    29    1
     9    29    30    1
    10    30    31    1
    11    22    21    1
    12    22    23    1
    13    23    24    1
    14    24    25    1
    15    25    26    1
    16    26    27    1
    17     4     5   ar
    18     5     6   ar
    19     6     7   ar
    20     7    10    1
    21    10    11   ar
    22    11    12   ar
    23    12    13   ar
    24    13    14   ar
    25    14    15   ar
    26     7     8   ar
    27     8     9   ar
    28     9     1   ar
    29    27    22    1
    30     9     5   ar
    31    15    10   ar
    32    16    19    1
    33    16    20    1
    34    31    32    1
    35    26    28    1
@<TRIPOS>MOLECULE
*****
 32 35 0 0 0
SMALL
GASTEIGER

@<TRIPOS>ATOM
      1 C         140.5600  141.4066  169.0302 C.ar    1  UNL1        0.0783
      2 C         139.4984  140.4084  169.3860 C.ar    1  UNL1        0.1053
      3 N         138.8939  139.5441  168.3196 N.ar    1  UNL1       -0.2290
      4 C         139.3509  139.6781  166.8971 C.ar    1  UNL1        0.1322
      5 C         140.4124  140.6763  166.5413 C.ar    1  UNL1        0.0383
      6 C         141.0594  141.0309  165.2353 C.ar    1  UNL1        0.0098
      7 C         142.0638  142.1143  165.4947 C.ar    1  UNL1        0.0296
      8 S         142.0376  142.4293  166.9610 S.2     1  UNL1       -0.0866
      9 C         141.0170  141.5406  167.6078 C.ar    1  UNL1        0.0380
     10 C         142.9406  142.7680  164.4680 C.ar    1  UNL1        0.0060
     11 C         142.8136  144.2384  164.2000 C.ar    1  UNL1        0.0005
     12 C         143.6904  144.8920  163.1733 C.ar    1  UNL1        0.0000
     13 C         144.6941  144.0753  162.4147 C.ar    1  UNL1        0.0000
     14 C         144.8211  142.6049  162.6827 C.ar    1  UNL1        0.0000
     15 C         143.9443  141.9513  163.7094 C.ar    1  UNL1        0.0005
     16 N         142.3231  141.7655  170.9044 N.am    1  UNL1       -0.3253
     17 C         141.1645  142.2709  170.0968 C.2     1  UNL1        0.2448
     18 O         140.6104  143.6406  170.3557 O.2     1  UNL1       -0.2703
     19 H         142.7199  142.3328  171.6044 H       1  UNL1        0.1453
     20 H         142.6868  140.8666  170.7345 H       1  UNL1        0.1453
     21 N         138.7463  138.8137  165.8306 N.pl3   1  UNL1       -0.2909
     22 C         138.3202  139.4197  164.5263 C.3     1  UNL1        0.0900
     23 C         138.6994  138.7603  163.2335 C.3     1  UNL1        0.0226
     24 C         138.2732  139.3662  161.9292 C.3     1  UNL1        0.0188
     25 C         137.4679  140.6317  161.9177 C.3     1  UNL1        0.0687
     26 N         137.0887  141.2912  163.2105 N.3     1  UNL1       -0.2961
     27 C         137.5148  140.6852  164.5148 C.3     1  UNL1        0.0886
     28 H         136.0701  141.3411  163.2278 H       1  UNL1        0.1233
     29 C         138.5678  137.3435  166.0684 C.3     1  UNL1        0.1238
     30 C         137.3188  136.8364  166.7262 C.3     1  UNL1        0.1585
     31 O         136.6294  137.6671  167.7678 O.3     1  UNL1       -0.3802
     32 H         137.2015  137.7488  168.5468 H       1  UNL1        0.2105
@<TRIPOS>BOND
     1    16    17   am
     2    17    18    2
     3    17     1    1
     4     1     2   ar
     5     2     3   ar
     6     3     4   ar
     7     4    21    1
     8    21    29    1
     9    29    30    1
    10    30    31    1
    11    22    21    1
    12    22    23    1
    13    23    24    1
    14    24    25    1
    15    25    26    1
    16    26    27    1
    17     4     5   ar
    18     5     6   ar
    19     6     7   ar
    20     7    10    1
    21    10    11   ar
    22    11    12   ar
    23    12    13   ar
    24    13    14   ar
    25    14    15   ar
    26     7     8   ar
    27     8     9   ar
    28     9     1   ar
    29    27    22    1
    30     9     5   ar
    31    15    10   ar
    32    16    19    1
    33    16    20    1
    34    31    32    1
    35    26    28    1
@<TRIPOS>MOLECULE
*****
 32 35 0 0 0
SMALL
GASTEIGER

@<TRIPOS>ATOM
      1 C         143.2389  141.9827  162.6149 C.ar    1  UNL1        0.0783
      2 C         142.4227  141.5084  161.4493 C.ar    1  UNL1        0.1053
      3 N         141.0146  141.0374  161.6618 N.ar    1  UNL1       -0.2290
      4 C         140.4226  141.0406  163.0401 C.ar    1  UNL1        0.1322
      5 C         141.2388  141.5149  164.2058 C.ar    1  UNL1        0.0383
      6 C         140.9268  141.6316  165.6683 C.ar    1  UNL1        0.0098
      7 C         142.1422  142.1747  166.3596 C.ar    1  UNL1        0.0296
      8 S         143.2053  142.3937  165.3243 S.2     1  UNL1       -0.0866
      9 C         142.6470  141.9859  163.9932 C.ar    1  UNL1        0.0380
     10 C         142.2717  142.4505  167.8284 C.ar    1  UNL1        0.0060
     11 C         141.0761  142.8984  168.6157 C.ar    1  UNL1        0.0005
     12 C         141.2057  143.1741  170.0844 C.ar    1  UNL1        0.0000
     13 C         142.5309  143.0019  170.7659 C.ar    1  UNL1        0.0000
     14 C         143.7264  142.5540  169.9786 C.ar    1  UNL1        0.0000
     15 C         143.5968  142.2782  168.5098 C.ar    1  UNL1        0.0005
     16 N         144.9041  143.8227  161.8458 N.am    1  UNL1       -0.3253
     17 C         144.6471  142.4537  162.4023 C.2     1  UNL1        0.2448
     18 O         145.7984  141.5556  162.7463 O.2     1  UNL1       -0.2703
     19 H         145.8283  144.1318  161.7062 H       1  UNL1        0.1453
     20 H         144.1485  144.4121  161.6200 H       1  UNL1        0.1453
     21 N         139.0144  140.5696  163.2527 N.pl3   1  UNL1       -0.2909
     22 C         138.7294  139.4804  164.2438 C.3     1  UNL1        0.0900
     23 C         138.1038  139.8140  165.5656 C.3     1  UNL1        0.0226
     24 C         137.8189  138.7248  166.5568 C.3     1  UNL1        0.0188
     25 C         138.1596  137.3019  166.2261 C.3     1  UNL1        0.0687
     26 N         138.7853  136.9683  164.9043 N.3     1  UNL1       -0.2961
     27 C         139.0702  138.0575  163.9131 C.3     1  UNL1        0.0886
     28 H         138.1623  136.3056  164.4425 H       1  UNL1        0.1233
     29 C         137.8912  141.1878  162.4741 C.3     1  UNL1        0.1238
     30 C         137.6046  142.6542  162.6070 C.3     1  UNL1        0.1585
     31 O         137.8416  143.3491  163.9150 O.3     1  UNL1       -0.3802
     32 H         137.2275  143.0027  164.5811 H       1  UNL1        0.2105
@<TRIPOS>BOND
     1    16    17   am
     2    17    18    2
     3    17     1    1
     4     1     2   ar
     5     2     3   ar
     6     3     4   ar
     7     4    21    1
     8    21    29    1
     9    29    30    1
    10    30    31    1
    11    22    21    1
    12    22    23    1
    13    23    24    1
    14    24    25    1
    15    25    26    1
    16    26    27    1
    17     4     5   ar
    18     5     6   ar
    19     6     7   ar
    20     7    10    1
    21    10    11   ar
    22    11    12   ar
    23    12    13   ar
    24    13    14   ar
    25    14    15   ar
    26     7     8   ar
    27     8     9   ar
    28     9     1   ar
    29    27    22    1
    30     9     5   ar
    31    15    10   ar
    32    16    19    1
    33    16    20    1
    34    31    32    1
    35    26    28    1
@<TRIPOS>MOLECULE
*****
 32 35 0 0 0
SMALL
GASTEIGER

@<TRIPOS>ATOM
      1 C         138.6956  139.4008  165.2580 C.ar    1  UNL1        0.0783
      2 C         138.2953  139.5105  163.8165 C.ar    1  UNL1        0.1053
      3 N         138.8042  140.6477  162.9814 N.ar    1  UNL1       -0.2290
      4 C         139.7135  141.6754  163.5876 C.ar    1  UNL1        0.1322
      5 C         140.1137  141.5656  165.0290 C.ar    1  UNL1        0.0383
      6 C         140.9900  142.4210  165.8952 C.ar    1  UNL1        0.0098
      7 C         141.0226  141.8124  167.2658 C.ar    1  UNL1        0.0296
      8 S         140.1665  140.5808  167.2466 S.2     1  UNL1       -0.0866
      9 C         139.6048  140.4283  165.8642 C.ar    1  UNL1        0.0380
     10 C         141.7786  142.3423  168.4480 C.ar    1  UNL1        0.0060
     11 C         141.0898  143.2290  169.4427 C.ar    1  UNL1        0.0005
     12 C         141.8459  143.7588  170.6249 C.ar    1  UNL1        0.0000
     13 C         143.2907  143.4021  170.8125 C.ar    1  UNL1        0.0000
     14 C         143.9795  142.5154  169.8179 C.ar    1  UNL1        0.0000
     15 C         143.2234  141.9856  168.6356 C.ar    1  UNL1        0.0005
     16 N         137.4696  138.5410  167.3811 N.am    1  UNL1       -0.3253
     17 C         138.1867  138.2635  166.0932 C.2     1  UNL1        0.2448
     18 O         138.3948  136.8486  165.6404 O.2     1  UNL1       -0.2703
     19 H         137.1356  137.7945  167.9293 H       1  UNL1        0.1453
     20 H         137.3330  139.4695  167.6783 H       1  UNL1        0.1453
     21 N         140.2223  142.8126  162.7523 N.pl3   1  UNL1       -0.2909
     22 C         141.6785  142.8923  162.4012 C.3     1  UNL1        0.0900
     23 C         142.5071  144.0413  162.8944 C.3     1  UNL1        0.0226
     24 C         143.9632  144.1210  162.5433 C.3     1  UNL1        0.0188
     25 C         144.5908  143.0517  161.6990 C.3     1  UNL1        0.0687
     26 N         143.7622  141.9027  161.2058 N.3     1  UNL1       -0.2961
     27 C         142.3060  141.8230  161.5569 C.3     1  UNL1        0.0886
     28 H         144.1977  141.0516  161.5611 H       1  UNL1        0.1233
     29 C         139.2751  143.8701  162.2682 C.3     1  UNL1        0.1238
     30 C         138.6026  144.7816  163.2515 C.3     1  UNL1        0.1585
     31 O         139.3455  145.2538  164.4660 O.3     1  UNL1       -0.3802
     32 H         139.5311  144.4984  165.0455 H       1  UNL1        0.2105
@<TRIPOS>BOND
     1    16    17   am
     2    17    18    2
     3    17     1    1
     4     1     2   ar
     5     2     3   ar
     6     3     4   ar
     7     4    21    1
     8    21    29    1
     9    29    30    1
    10    30    31    1
    11    22    21    1
    12    22    23    1
    13    23    24    1
    14    24    25    1
    15    25    26    1
    16    26    27    1
    17     4     5   ar
    18     5     6   ar
    19     6     7   ar
    20     7    10    1
    21    10    11   ar
    22    11    12   ar
    23    12    13   ar
    24    13    14   ar
    25    14    15   ar
    26     7     8   ar
    27     8     9   ar
    28     9     1   ar
    29    27    22    1
    30     9     5   ar
    31    15    10   ar
    32    16    19    1
    33    16    20    1
    34    31    32    1
    35    26    28    1
@<TRIPOS>MOLECULE
*****
 32 35 0 0 0
SMALL
GASTEIGER

@<TRIPOS>ATOM
      1 C         139.5609  140.9120  159.1505 C.ar    1  UNL1        0.0783
      2 C         140.3815  141.9981  158.5204 C.ar    1  UNL1        0.1053
      3 N         141.2318  142.8885  159.3771 N.ar    1  UNL1       -0.2290
      4 C         141.2617  142.6928  160.8641 C.ar    1  UNL1        0.1322
      5 C         140.4411  141.6067  161.4942 C.ar    1  UNL1        0.0383
      6 C         140.2697  141.1781  162.9214 C.ar    1  UNL1        0.0098
      7 C         139.3134  140.0228  162.9467 C.ar    1  UNL1        0.0296
      8 S         138.8938  139.7374  161.5351 S.2     1  UNL1       -0.0866
      9 C         139.5907  140.7163  160.6374 C.ar    1  UNL1        0.0380
     10 C         138.8568  139.2827  164.1689 C.ar    1  UNL1        0.0060
     11 C         138.3080  140.0390  165.3423 C.ar    1  UNL1        0.0005
     12 C         137.8515  139.2989  166.5645 C.ar    1  UNL1        0.0000
     13 C         137.9437  137.8026  166.6134 C.ar    1  UNL1        0.0000
     14 C         138.4925  137.0463  165.4400 C.ar    1  UNL1        0.0000
     15 C         138.9490  137.7864  164.2178 C.ar    1  UNL1        0.0005
     16 N         139.2840  138.7573  157.7255 N.am    1  UNL1       -0.3253
     17 C         138.7106  140.0216  158.2938 C.2     1  UNL1        0.2448
     18 O         137.2868  140.3954  158.0053 O.2     1  UNL1       -0.2703
     19 H         138.7259  138.1729  157.1631 H       1  UNL1        0.1453
     20 H         140.2184  138.5120  157.9148 H       1  UNL1        0.1453
     21 N         142.1120  143.5833  161.7208 N.pl3   1  UNL1       -0.2909
     22 C         143.3260  143.0287  162.4054 C.3     1  UNL1        0.0900
     23 C         143.3869  142.9830  163.9035 C.3     1  UNL1        0.0226
     24 C         144.6008  142.4283  164.5881 C.3     1  UNL1        0.0188
     25 C         145.7538  141.9193  163.7747 C.3     1  UNL1        0.0687
     26 N         145.6928  141.9650  162.2767 N.3     1  UNL1       -0.2961
     27 C         144.4789  142.5197  161.5920 C.3     1  UNL1        0.0886
     28 H         145.8037  141.0058  161.9481 H       1  UNL1        0.1233
     29 C         141.7485  145.0284  161.8928 C.3     1  UNL1        0.1238
     30 C         140.3324  145.4757  161.6817 C.3     1  UNL1        0.1585
     31 O         139.8057  145.6664  160.2902 O.3     1  UNL1       -0.3802
     32 H         140.2734  146.4024  159.8655 H       1  UNL1        0.2105
@<TRIPOS>BOND
     1    16    17   am
     2    17    18    2
     3    17     1    1
     4     1     2   ar
     5     2     3   ar
     6     3     4   ar
     7     4    21    1
     8    21    29    1
     9    29    30    1
    10    30    31    1
    11    22    21    1
    12    22    23    1
    13    23    24    1
    14    24    25    1
    15    25    26    1
    16    26    27    1
    17     4     5   ar
    18     5     6   ar
    19     6     7   ar
    20     7    10    1
    21    10    11   ar
    22    11    12   ar
    23    12    13   ar
    24    13    14   ar
    25    14    15   ar
    26     7     8   ar
    27     8     9   ar
    28     9     1   ar
    29    27    22    1
    30     9     5   ar
    31    15    10   ar
    32    16    19    1
    33    16    20    1
    34    31    32    1
    35    26    28    1
@<TRIPOS>MOLECULE
*****
 32 35 0 0 0
SMALL
GASTEIGER

@<TRIPOS>ATOM
      1 C         138.9506  143.2320  162.7525 C.ar    1  UNL1        0.0783
      2 C         138.6680  142.3292  161.5884 C.ar    1  UNL1        0.1053
      3 N         139.0860  140.8896  161.6370 N.ar    1  UNL1       -0.2290
      4 C         139.7867  140.3525  162.8498 C.ar    1  UNL1        0.1322
      5 C         140.0693  141.2553  164.0139 C.ar    1  UNL1        0.0383
      6 C         140.7384  141.0112  165.3340 C.ar    1  UNL1        0.0098
      7 C         140.7338  142.3002  166.1012 C.ar    1  UNL1        0.0296
      8 S         140.0619  143.3408  165.2553 S.2     1  UNL1       -0.0866
      9 C         139.6512  142.6951  163.9652 C.ar    1  UNL1        0.0380
     10 C         141.3015  142.5114  167.4735 C.ar    1  UNL1        0.0060
     11 C         140.4546  143.1240  168.5494 C.ar    1  UNL1        0.0005
     12 C         141.0224  143.3352  169.9217 C.ar    1  UNL1        0.0000
     13 C         142.4369  142.9338  170.2181 C.ar    1  UNL1        0.0000
     14 C         143.2838  142.3212  169.1422 C.ar    1  UNL1        0.0000
     15 C         142.7160  142.1100  167.7699 C.ar    1  UNL1        0.0005
     16 N         137.0765  145.0313  162.7302 N.am    1  UNL1       -0.3253
     17 C         138.5325  144.6718  162.7038 C.2     1  UNL1        0.2448
     18 O         139.5706  145.7521  162.6288 O.2     1  UNL1       -0.2703
     19 H         136.8021  145.9762  162.6982 H       1  UNL1        0.1453
     20 H         136.3952  144.3223  162.7794 H       1  UNL1        0.1453
     21 N         140.2047  138.9127  162.8984 N.pl3   1  UNL1       -0.2909
     22 C         141.5536  138.5057  162.3838 C.3     1  UNL1        0.0900
     23 C         142.7918  138.8935  163.1365 C.3     1  UNL1        0.0226
     24 C         144.1407  138.4865  162.6220 C.3     1  UNL1        0.0188
     25 C         144.2514  137.6917  161.3547 C.3     1  UNL1        0.0687
     26 N         143.0133  137.3039  160.6020 N.3     1  UNL1       -0.2961
     27 C         141.6644  137.7109  161.1165 C.3     1  UNL1        0.0886
     28 H         143.0111  136.2856  160.5434 H       1  UNL1        0.1233
     29 C         139.2739  137.8801  163.4615 C.3     1  UNL1        0.1238
     30 C         139.1853  137.6798  164.9455 C.3     1  UNL1        0.1585
     31 O         138.2137  138.4868  165.7545 O.3     1  UNL1       -0.3802
     32 H         138.4721  139.4215  165.7320 H       1  UNL1        0.2105
@<TRIPOS>BOND
     1    16    17   am
     2    17    18    2
     3    17     1    1
     4     1     2   ar
     5     2     3   ar
     6     3     4   ar
     7     4    21    1
     8    21    29    1
     9    29    30    1
    10    30    31    1
    11    22    21    1
    12    22    23    1
    13    23    24    1
    14    24    25    1
    15    25    26    1
    16    26    27    1
    17     4     5   ar
    18     5     6   ar
    19     6     7   ar
    20     7    10    1
    21    10    11   ar
    22    11    12   ar
    23    12    13   ar
    24    13    14   ar
    25    14    15   ar
    26     7     8   ar
    27     8     9   ar
    28     9     1   ar
    29    27    22    1
    30     9     5   ar
    31    15    10   ar
    32    16    19    1
    33    16    20    1
    34    31    32    1
    35    26    28    1
@<TRIPOS>MOLECULE
*****
 32 35 0 0 0
SMALL
GASTEIGER

@<TRIPOS>ATOM
      1 C         140.9767  141.5922  169.1122 C.ar    1  UNL1        0.0783
      2 C         141.6290  140.3211  169.5691 C.ar    1  UNL1        0.1053
      3 N         142.2315  139.3842  168.5647 N.ar    1  UNL1       -0.2290
      4 C         142.1817  139.7182  167.1031 C.ar    1  UNL1        0.1322
      5 C         141.5293  140.9893  166.6462 C.ar    1  UNL1        0.0383
      6 C         141.3299  141.5811  165.2824 C.ar    1  UNL1        0.0098
      7 C         140.6042  142.8839  165.4440 C.ar    1  UNL1        0.0296
      8 S         140.3551  143.0972  166.9077 S.2     1  UNL1       -0.0866
      9 C         140.9268  141.9263  167.6507 C.ar    1  UNL1        0.0380
     10 C         140.1988  143.8106  164.3364 C.ar    1  UNL1        0.0060
     11 C         141.2139  144.7201  163.7101 C.ar    1  UNL1        0.0005
     12 C         140.8084  145.6468  162.6025 C.ar    1  UNL1        0.0000
     13 C         139.3878  145.6641  162.1212 C.ar    1  UNL1        0.0000
     14 C         138.3727  144.7547  162.7476 C.ar    1  UNL1        0.0000
     15 C         138.7782  143.8279  163.8552 C.ar    1  UNL1        0.0005
     16 N         141.0476  143.8339  170.4236 N.am    1  UNL1       -0.3253
     17 C         140.3742  142.5292  170.1167 C.2     1  UNL1        0.2448
     18 O         139.0982  142.1614  170.8145 O.2     1  UNL1       -0.2703
     19 H         140.6521  144.4489  171.0829 H       1  UNL1        0.1453
     20 H         141.8850  144.0753  169.9656 H       1  UNL1        0.1453
     21 N         142.7842  138.7812  166.0987 N.pl3   1  UNL1       -0.2909
     22 C         142.0026  138.3822  164.8822 C.3     1  UNL1        0.0900
     23 C         142.6553  138.4012  163.5318 C.3     1  UNL1        0.0226
     24 C         141.8737  138.0022  162.3153 C.3     1  UNL1        0.0188
     25 C         140.4394  137.5841  162.4492 C.3     1  UNL1        0.0687
     26 N         139.7867  137.5651  163.7996 N.3     1  UNL1       -0.2961
     27 C         140.5683  137.9641  165.0161 C.3     1  UNL1        0.0886
     28 H         139.4638  136.6104  163.9571 H       1  UNL1        0.1233
     29 C         144.1682  138.2432  166.3107 C.3     1  UNL1        0.1238
     30 C         144.4027  137.1492  167.3098 C.3     1  UNL1        0.1585
     31 O         145.7258  136.4439  167.3530 O.3     1  UNL1       -0.3802
     32 H         145.8524  135.9435  166.5317 H       1  UNL1        0.2105
@<TRIPOS>BOND
     1    16    17   am
     2    17    18    2
     3    17     1    1
     4     1     2   ar
     5     2     3   ar
     6     3     4   ar
     7     4    21    1
     8    21    29    1
     9    29    30    1
    10    30    31    1
    11    22    21    1
    12    22    23    1
    13    23    24    1
    14    24    25    1
    15    25    26    1
    16    26    27    1
    17     4     5   ar
    18     5     6   ar
    19     6     7   ar
    20     7    10    1
    21    10    11   ar
    22    11    12   ar
    23    12    13   ar
    24    13    14   ar
    25    14    15   ar
    26     7     8   ar
    27     8     9   ar
    28     9     1   ar
    29    27    22    1
    30     9     5   ar
    31    15    10   ar
    32    16    19    1
    33    16    20    1
    34    31    32    1
    35    26    28    1
@<TRIPOS>MOLECULE
*****
 32 35 0 0 0
SMALL
GASTEIGER

@<TRIPOS>ATOM
      1 C         143.7709  142.9333  164.1997 C.ar    1  UNL1        0.0783
      2 C         144.0510  142.5846  162.7680 C.ar    1  UNL1        0.1053
      3 N         143.5406  141.2952  162.1964 N.ar    1  UNL1       -0.2290
      4 C         142.7499  140.3544  163.0565 C.ar    1  UNL1        0.1322
      5 C         142.4697  140.7031  164.4882 C.ar    1  UNL1        0.0383
      6 C         141.7239  139.9796  165.5700 C.ar    1  UNL1        0.0098
      7 C         141.7735  140.8219  166.8102 C.ar    1  UNL1        0.0296
      8 S         142.5499  142.0660  166.4949 S.2     1  UNL1       -0.0866
      9 C         142.9802  141.9926  165.0598 C.ar    1  UNL1        0.0380
     10 C         141.1552  140.4801  168.1335 C.ar    1  UNL1        0.0060
     11 C         141.9978  139.8892  169.2247 C.ar    1  UNL1        0.0005
     12 C         141.3794  139.5475  170.5480 C.ar    1  UNL1        0.0000
     13 C         139.9186  139.7966  170.7799 C.ar    1  UNL1        0.0000
     14 C         139.0760  140.3875  169.6886 C.ar    1  UNL1        0.0000
     15 C         139.6944  140.7292  168.3654 C.ar    1  UNL1        0.0005
     16 N         143.8627  145.5295  164.1654 N.am    1  UNL1       -0.3253
     17 C         144.2814  144.2228  164.7713 C.2     1  UNL1        0.2448
     18 O         145.2106  144.2054  165.9487 O.2     1  UNL1       -0.2703
     19 H         144.1977  146.3758  164.5406 H       1  UNL1        0.1453
     20 H         143.2528  145.5409  163.3927 H       1  UNL1        0.1453
     21 N         142.2394  139.0649  162.4849 N.pl3   1  UNL1       -0.2909
     22 C         140.7778  138.9021  162.1894 C.3     1  UNL1        0.0900
     23 C         139.9630  137.9070  162.9613 C.3     1  UNL1        0.0226
     24 C         138.5014  137.7442  162.6659 C.3     1  UNL1        0.0188
     25 C         137.8547  138.5765  161.5986 C.3     1  UNL1        0.0687
     26 N         138.6695  139.5716  160.8268 N.3     1  UNL1       -0.2961
     27 C         140.1311  139.7344  161.1222 C.3     1  UNL1        0.0886
     28 H         138.2362  140.4834  160.9728 H       1  UNL1        0.1233
     29 C         143.1905  137.9384  162.2086 C.3     1  UNL1        0.1238
     30 C         143.9052  137.8662  160.8918 C.3     1  UNL1        0.1585
     31 O         144.1136  139.1116  160.0823 O.3     1  UNL1       -0.3802
     32 H         143.2553  139.4500  159.7828 H       1  UNL1        0.2105
@<TRIPOS>BOND
     1    16    17   am
     2    17    18    2
     3    17     1    1
     4     1     2   ar
     5     2     3   ar
     6     3     4   ar
     7     4    21    1
     8    21    29    1
     9    29    30    1
    10    30    31    1
    11    22    21    1
    12    22    23    1
    13    23    24    1
    14    24    25    1
    15    25    26    1
    16    26    27    1
    17     4     5   ar
    18     5     6   ar
    19     6     7   ar
    20     7    10    1
    21    10    11   ar
    22    11    12   ar
    23    12    13   ar
    24    13    14   ar
    25    14    15   ar
    26     7     8   ar
    27     8     9   ar
    28     9     1   ar
    29    27    22    1
    30     9     5   ar
    31    15    10   ar
    32    16    19    1
    33    16    20    1
    34    31    32    1
    35    26    28    1
@<TRIPOS>MOLECULE
*****
 32 35 0 0 0
SMALL
GASTEIGER

@<TRIPOS>ATOM
      1 C         140.4253  144.1166  162.4783 C.ar    1  UNL1        0.0783
      2 C         141.0981  143.6276  161.2301 C.ar    1  UNL1        0.1053
      3 N         141.9548  142.3972  161.2727 N.ar    1  UNL1       -0.2290
      4 C         142.1388  141.6556  162.5636 C.ar    1  UNL1        0.1322
      5 C         141.4659  142.1446  163.8118 C.ar    1  UNL1        0.0383
      6 C         141.4622  141.6256  165.2192 C.ar    1  UNL1        0.0098
      7 C         140.6031  142.5354  166.0464 C.ar    1  UNL1        0.0296
      8 S         140.0759  143.6166  165.1503 S.2     1  UNL1       -0.0866
      9 C         140.6092  143.3751  163.7692 C.ar    1  UNL1        0.0380
     10 C         140.3208  142.3896  167.5123 C.ar    1  UNL1        0.0060
     11 C         140.4691  143.5702  168.4257 C.ar    1  UNL1        0.0005
     12 C         140.1868  143.4243  169.8917 C.ar    1  UNL1        0.0000
     13 C         139.7562  142.0980  170.4443 C.ar    1  UNL1        0.0000
     14 C         139.6079  140.9174  169.5309 C.ar    1  UNL1        0.0000
     15 C         139.8902  141.0633  168.0649 C.ar    1  UNL1        0.0005
     16 N         140.2062  146.7046  162.4139 N.am    1  UNL1       -0.3253
     17 C         139.5685  145.3471  162.4357 C.2     1  UNL1        0.2448
     18 O         138.0740  145.2201  162.4149 O.2     1  UNL1       -0.2703
     19 H         139.6439  147.5122  162.3859 H       1  UNL1        0.1453
     20 H         141.1871  146.7880  162.4276 H       1  UNL1        0.1453
     21 N         142.9955  140.4250  162.6061 N.pl3   1  UNL1       -0.2909
     22 C         142.4245  139.1304  163.1040 C.3     1  UNL1        0.0900
     23 C         142.6386  138.7152  164.5293 C.3     1  UNL1        0.0226
     24 C         142.0675  137.4206  165.0272 C.3     1  UNL1        0.0188
     25 C         141.2823  136.5412  164.0997 C.3     1  UNL1        0.0687
     26 N         141.0682  136.9565  162.6743 N.3     1  UNL1       -0.2961
     27 C         141.6393  138.2511  162.1765 C.3     1  UNL1        0.0886
     28 H         140.0596  137.0048  162.5301 H       1  UNL1        0.1233
     29 C         144.4233  140.4891  162.1508 C.3     1  UNL1        0.1238
     30 C         145.3000  141.6246  162.5892 C.3     1  UNL1        0.1585
     31 O         145.1849  142.9624  161.9205 O.3     1  UNL1       -0.3802
     32 H         145.4674  142.8869  160.9956 H       1  UNL1        0.2105
@<TRIPOS>BOND
     1    16    17   am
     2    17    18    2
     3    17     1    1
     4     1     2   ar
     5     2     3   ar
     6     3     4   ar
     7     4    21    1
     8    21    29    1
     9    29    30    1
    10    30    31    1
    11    22    21    1
    12    22    23    1
    13    23    24    1
    14    24    25    1
    15    25    26    1
    16    26    27    1
    17     4     5   ar
    18     5     6   ar
    19     6     7   ar
    20     7    10    1
    21    10    11   ar
    22    11    12   ar
    23    12    13   ar
    24    13    14   ar
    25    14    15   ar
    26     7     8   ar
    27     8     9   ar
    28     9     1   ar
    29    27    22    1
    30     9     5   ar
    31    15    10   ar
    32    16    19    1
    33    16    20    1
    34    31    32    1
    35    26    28    1
