@<TRIPOS>MOLECULE
*****
 29 32 0 0 0
SMALL
GASTEIGER

@<TRIPOS>ATOM
      1 C         139.2860  139.8730  167.0680 C.2     1  UNL1       -0.0161
      2 C         138.3285  139.5163  168.1660 C.2     1  UNL1       -0.0023
      3 C         138.6168  139.9340  169.5775 C.2     1  UNL1        0.0203
      4 C         139.8626  140.7083  169.8910 C.2     1  UNL1        0.1008
      5 N         140.4091  141.2526  171.1776 N.2     1  UNL1       -0.1481
      6 N         141.7044  141.9457  170.8745 N.2     1  UNL1       -0.1436
      7 C         141.9584  141.8298  169.4007 C.2     1  UNL1        0.1537
      8 C         140.8202  141.0650  168.7929 C.2     1  UNL1        0.0255
      9 C         140.5319  140.6474  167.3814 C.3     1  UNL1        0.0560
     10 C         138.2154  140.0463  163.2504 C.ar    1  UNL1        0.0264
     11 C         138.4212  138.6201  162.8332 C.ar    1  UNL1        0.0970
     12 N         138.9152  137.6117  163.8276 N.ar    1  UNL1       -0.2426
     13 C         139.2035  138.0293  165.2393 C.ar    1  UNL1        0.0985
     14 C         138.9977  139.4554  165.6563 C.ar    1  UNL1        0.0153
     15 C         138.5037  140.4638  164.6619 C.ar    1  UNL1        0.0009
     16 C         137.7213  141.0547  162.2559 C.3     1  UNL1        0.1702
     17 C         137.8987  143.6112  162.6839 C.3     1  UNL1        0.1746
     18 O         137.1070  142.3380  162.7313 O.3     1  UNL1       -0.3463
     19 C         143.1428  142.3817  168.6641 C.2     1  UNL1        0.2651
     20 O         144.3587  142.8238  169.4231 O.2     1  UNL1       -0.2684
     21 N         143.1113  142.4915  167.1685 N.am    1  UNL1       -0.2996
     22 H         142.3132  142.2013  166.6703 H       1  UNL1        0.1498
     23 C         144.2957  143.0434  166.4319 C.3     1  UNL1        0.0899
     24 C         144.2638  143.1541  164.9363 C.3     1  UNL1        0.0246
     25 C         144.9064  142.0938  164.0919 C.3     1  UNL1        0.0338
     26 C         144.8746  142.2044  162.5963 C.3     1  UNL1        0.1422
     27 O         144.2001  143.3753  161.9451 O.3     1  UNL1       -0.3538
     28 C         143.5575  144.4356  162.7895 C.3     1  UNL1        0.1422
     29 C         143.5893  144.3250  164.2851 C.3     1  UNL1        0.0338
@<TRIPOS>BOND
     1    17    18    1
     2    18    16    1
     3    16    10    1
     4    10    11   ar
     5    11    12   ar
     6    12    13   ar
     7    13    14   ar
     8    14     1    1
     9     1     2    2
    10     2     3    1
    11     3     4    2
    12     4     5    1
    13     5     6    2
    14     6     7    1
    15     7    19    1
    16    19    20    2
    17    19    21   am
    18    21    23    1
    19    23    24    1
    20    24    25    1
    21    25    26    1
    22    26    27    1
    23    27    28    1
    24    28    29    1
    25     7     8    2
    26     8     9    1
    27    14    15   ar
    28    15    10   ar
    29     9     1    1
    30     8     4    1
    31    29    24    1
    32    21    22    1
@<TRIPOS>MOLECULE
*****
 29 32 0 0 0
SMALL
GASTEIGER

@<TRIPOS>ATOM
      1 C         143.2179  142.2157  167.7210 C.2     1  UNL1       -0.0161
      2 C         144.0267  142.8283  168.8257 C.2     1  UNL1       -0.0023
      3 C         143.5466  142.7407  170.2441 C.2     1  UNL1        0.0203
      4 C         142.2577  142.0405  170.5577 C.2     1  UNL1        0.1008
      5 N         141.5363  141.7972  171.8502 N.2     1  UNL1       -0.1481
      6 N         140.2816  141.0343  171.5443 N.2     1  UNL1       -0.1436
      7 C         140.2276  140.8060  170.0627 C.2     1  UNL1        0.1537
      8 C         141.4489  141.4279  169.4530 C.2     1  UNL1        0.0255
      9 C         141.9289  141.5155  168.0346 C.3     1  UNL1        0.0560
     10 C         144.0724  141.1975  163.9816 C.ar    1  UNL1        0.0264
     11 C         144.6580  142.4785  163.4657 C.ar    1  UNL1        0.0970
     12 N         144.7635  143.6719  164.3682 N.ar    1  UNL1       -0.2426
     13 C         144.2835  143.5843  165.7867 C.ar    1  UNL1        0.0985
     14 C         143.6979  142.3033  166.3025 C.ar    1  UNL1        0.0153
     15 C         143.5924  141.1099  165.4000 C.ar    1  UNL1        0.0009
     16 C         143.9669  140.0040  163.0791 C.3     1  UNL1        0.1702
     17 C         142.3820  137.9834  162.6848 C.3     1  UNL1        0.1746
     18 O         143.3203  138.7442  163.5741 O.3     1  UNL1       -0.3463
     19 C         139.1427  140.0828  169.3210 C.2     1  UNL1        0.2651
     20 O         137.9019  139.6480  170.0430 O.2     1  UNL1       -0.2684
     21 N         139.2987  139.7944  167.8573 N.am    1  UNL1       -0.2996
     22 H         140.1131  140.0798  167.3834 H       1  UNL1        0.1498
     23 C         138.2138  139.0712  167.1156 C.3     1  UNL1        0.0899
     24 C         138.2896  138.9316  165.6240 C.3     1  UNL1        0.0246
     25 C         138.7123  137.6284  165.0133 C.3     1  UNL1        0.0338
     26 C         138.7881  137.4886  163.5217 C.3     1  UNL1        0.1422
     27 O         138.4413  138.6521  162.6409 O.3     1  UNL1       -0.3538
     28 C         138.0186  139.9553  163.2516 C.3     1  UNL1        0.1422
     29 C         137.9428  140.0951  164.7432 C.3     1  UNL1        0.0338
@<TRIPOS>BOND
     1    17    18    1
     2    18    16    1
     3    16    10    1
     4    10    11   ar
     5    11    12   ar
     6    12    13   ar
     7    13    14   ar
     8    14     1    1
     9     1     2    2
    10     2     3    1
    11     3     4    2
    12     4     5    1
    13     5     6    2
    14     6     7    1
    15     7    19    1
    16    19    20    2
    17    19    21   am
    18    21    23    1
    19    23    24    1
    20    24    25    1
    21    25    26    1
    22    26    27    1
    23    27    28    1
    24    28    29    1
    25     7     8    2
    26     8     9    1
    27    14    15   ar
    28    15    10   ar
    29     9     1    1
    30     8     4    1
    31    29    24    1
    32    21    22    1
@<TRIPOS>MOLECULE
*****
 29 32 0 0 0
SMALL
GASTEIGER

@<TRIPOS>ATOM
      1 C         140.6298  142.3744  167.0858 C.2     1  UNL1       -0.0161
      2 C         140.0705  143.5210  167.8747 C.2     1  UNL1       -0.0023
      3 C         140.2287  143.5532  169.3659 C.2     1  UNL1        0.0203
      4 C         140.9463  142.4389  170.0683 C.2     1  UNL1        0.1008
      5 N         141.2543  142.1991  171.5167 N.2     1  UNL1       -0.1481
      6 N         142.0040  140.9042  171.6228 N.2     1  UNL1       -0.1436
      7 C         142.1593  140.3438  170.2401 C.2     1  UNL1        0.1537
      8 C         141.5056  141.2923  169.2794 C.2     1  UNL1        0.0255
      9 C         141.3474  141.2600  167.7881 C.3     1  UNL1        0.0560
     10 C         138.9864  141.9605  163.4972 C.ar    1  UNL1        0.0264
     11 C         140.1551  142.2775  162.6119 C.ar    1  UNL1        0.0970
     12 N         141.4821  142.6268  163.2179 N.ar    1  UNL1       -0.2426
     13 C         141.6403  142.6590  164.7092 C.ar    1  UNL1        0.0985
     14 C         140.4716  142.3421  165.5945 C.ar    1  UNL1        0.0153
     15 C         139.1447  141.9928  164.9884 C.ar    1  UNL1        0.0009
     16 C         137.6595  141.6113  162.8912 C.3     1  UNL1        0.1702
     17 C         138.0800  139.0882  162.4358 C.3     1  UNL1        0.1746
     18 O         137.5359  140.4147  161.9950 O.3     1  UNL1       -0.3463
     19 C         142.8476  139.0603  169.8812 C.2     1  UNL1        0.2651
     20 O         143.0776  138.7098  168.4410 O.2     1  UNL1       -0.2684
     21 N         143.3058  138.1271  170.9625 N.am    1  UNL1       -0.2996
     22 H         143.1548  138.3571  171.9078 H       1  UNL1        0.1498
     23 C         143.9940  136.8436  170.6035 C.3     1  UNL1        0.0899
     24 C         144.9001  136.1756  171.5949 C.3     1  UNL1        0.0246
     25 C         144.7148  134.7232  171.9206 C.3     1  UNL1        0.0338
     26 C         145.6208  134.0552  172.9120 C.3     1  UNL1        0.1422
     27 O         146.7123  134.8397  173.5778 O.3     1  UNL1       -0.3538
     28 C         146.8976  136.2922  173.2521 C.3     1  UNL1        0.1422
     29 C         145.9915  136.9602  172.2607 C.3     1  UNL1        0.0338
@<TRIPOS>BOND
     1    17    18    1
     2    18    16    1
     3    16    10    1
     4    10    11   ar
     5    11    12   ar
     6    12    13   ar
     7    13    14   ar
     8    14     1    1
     9     1     2    2
    10     2     3    1
    11     3     4    2
    12     4     5    1
    13     5     6    2
    14     6     7    1
    15     7    19    1
    16    19    20    2
    17    19    21   am
    18    21    23    1
    19    23    24    1
    20    24    25    1
    21    25    26    1
    22    26    27    1
    23    27    28    1
    24    28    29    1
    25     7     8    2
    26     8     9    1
    27    14    15   ar
    28    15    10   ar
    29     9     1    1
    30     8     4    1
    31    29    24    1
    32    21    22    1
@<TRIPOS>MOLECULE
*****
 29 32 0 0 0
SMALL
GASTEIGER

@<TRIPOS>ATOM
      1 C         138.8060  140.0360  165.6566 C.2     1  UNL1       -0.0161
      2 C         137.8663  139.2376  166.5106 C.2     1  UNL1       -0.0023
      3 C         138.1086  139.1220  167.9863 C.2     1  UNL1        0.0203
      4 C         139.2906  139.8049  168.6081 C.2     1  UNL1        0.1008
      5 N         139.7822  139.8696  170.0238 N.2     1  UNL1       -0.1481
      6 N         141.0258  140.7081  170.0447 N.2     1  UNL1       -0.1436
      7 C         141.3027  141.1615  168.6420 C.2     1  UNL1        0.1537
      8 C         140.2303  140.6033  167.7541 C.2     1  UNL1        0.0255
      9 C         139.9880  140.7189  166.2784 C.3     1  UNL1        0.0560
     10 C         138.2353  141.6202  162.0629 C.ar    1  UNL1        0.0264
     11 C         138.0793  140.3829  161.2291 C.ar    1  UNL1        0.0970
     12 N         138.1657  139.0301  161.8713 N.ar    1  UNL1       -0.2426
     13 C         138.4079  138.9144  163.3471 C.ar    1  UNL1        0.0985
     14 C         138.5638  140.1516  164.1807 C.ar    1  UNL1        0.0153
     15 C         138.4775  141.5045  163.5386 C.ar    1  UNL1        0.0009
     16 C         138.1489  142.9730  161.4207 C.3     1  UNL1        0.1702
     17 C         139.0209  145.1500  162.5391 C.3     1  UNL1        0.1746
     18 O         137.9025  144.1890  162.2638 O.3     1  UNL1       -0.3463
     19 C         142.4505  142.0221  168.2040 C.2     1  UNL1        0.2651
     20 O         143.2161  142.8230  169.2151 O.2     1  UNL1       -0.2684
     21 N         142.8329  142.0818  166.7547 N.am    1  UNL1       -0.2996
     22 H         142.3304  141.5562  166.0910 H       1  UNL1        0.1498
     23 C         143.9807  142.9424  166.3167 C.3     1  UNL1        0.0899
     24 C         144.1810  143.2413  164.8605 C.3     1  UNL1        0.0246
     25 C         143.7189  144.5507  164.2932 C.3     1  UNL1        0.0338
     26 C         143.9192  144.8497  162.8369 C.3     1  UNL1        0.1422
     27 O         144.5816  143.8393  161.9481 O.3     1  UNL1       -0.3538
     28 C         145.0437  142.5299  162.5154 C.3     1  UNL1        0.1422
     29 C         144.8435  142.2309  163.9716 C.3     1  UNL1        0.0338
@<TRIPOS>BOND
     1    17    18    1
     2    18    16    1
     3    16    10    1
     4    10    11   ar
     5    11    12   ar
     6    12    13   ar
     7    13    14   ar
     8    14     1    1
     9     1     2    2
    10     2     3    1
    11     3     4    2
    12     4     5    1
    13     5     6    2
    14     6     7    1
    15     7    19    1
    16    19    20    2
    17    19    21   am
    18    21    23    1
    19    23    24    1
    20    24    25    1
    21    25    26    1
    22    26    27    1
    23    27    28    1
    24    28    29    1
    25     7     8    2
    26     8     9    1
    27    14    15   ar
    28    15    10   ar
    29     9     1    1
    30     8     4    1
    31    29    24    1
    32    21    22    1
@<TRIPOS>MOLECULE
*****
 29 32 0 0 0
SMALL
GASTEIGER

@<TRIPOS>ATOM
      1 C         141.4434  142.3356  167.2137 C.2     1  UNL1       -0.0161
      2 C         141.5461  142.9768  168.5658 C.2     1  UNL1       -0.0023
      3 C         140.6982  142.4787  169.6985 C.2     1  UNL1        0.0203
      4 C         139.7476  141.3393  169.4790 C.2     1  UNL1        0.1008
      5 N         138.7918  140.6384  170.3984 N.2     1  UNL1       -0.1481
      6 N         138.0983  139.5639  169.6144 N.2     1  UNL1       -0.1436
      7 C         138.6256  139.6008  168.2106 C.2     1  UNL1        0.1537
      8 C         139.6449  140.6981  168.1269 C.2     1  UNL1        0.0255
      9 C         140.4928  141.1962  166.9943 C.3     1  UNL1        0.0560
     10 C         142.4954  143.9767  163.7568 C.ar    1  UNL1        0.0264
     11 C         143.9871  143.8299  163.8156 C.ar    1  UNL1        0.0970
     12 N         144.6308  143.1849  165.0070 N.ar    1  UNL1       -0.2426
     13 C         143.7829  142.6868  166.1398 C.ar    1  UNL1        0.0985
     14 C         142.2913  142.8337  166.0810 C.ar    1  UNL1        0.0153
     15 C         141.6475  143.4786  164.8895 C.ar    1  UNL1        0.0009
     16 C         141.8516  144.6217  162.5654 C.3     1  UNL1        0.1702
     17 C         139.8953  146.0699  161.6566 C.3     1  UNL1        0.1746
     18 O         140.8541  145.7254  162.7576 O.3     1  UNL1       -0.3463
     19 C         138.2070  138.6988  167.0875 C.2     1  UNL1        0.2651
     20 O         136.9248  137.9265  167.1839 O.2     1  UNL1       -0.2684
     21 N         139.0707  138.5691  165.8680 N.am    1  UNL1       -0.2996
     22 H         139.9123  139.0760  165.8047 H       1  UNL1        0.1498
     23 C         138.6522  137.6671  164.7450 C.3     1  UNL1        0.0899
     24 C         139.3026  137.7935  163.3993 C.3     1  UNL1        0.0246
     25 C         140.7854  137.6125  163.2629 C.3     1  UNL1        0.0338
     26 C         141.4359  137.7389  161.9172 C.3     1  UNL1        0.1422
     27 O         140.6035  138.0463  160.7078 O.3     1  UNL1       -0.3538
     28 C         139.1208  138.2274  160.8442 C.3     1  UNL1        0.1422
     29 C         138.4703  138.1010  162.1899 C.3     1  UNL1        0.0338
@<TRIPOS>BOND
     1    17    18    1
     2    18    16    1
     3    16    10    1
     4    10    11   ar
     5    11    12   ar
     6    12    13   ar
     7    13    14   ar
     8    14     1    1
     9     1     2    2
    10     2     3    1
    11     3     4    2
    12     4     5    1
    13     5     6    2
    14     6     7    1
    15     7    19    1
    16    19    20    2
    17    19    21   am
    18    21    23    1
    19    23    24    1
    20    24    25    1
    21    25    26    1
    22    26    27    1
    23    27    28    1
    24    28    29    1
    25     7     8    2
    26     8     9    1
    27    14    15   ar
    28    15    10   ar
    29     9     1    1
    30     8     4    1
    31    29    24    1
    32    21    22    1
@<TRIPOS>MOLECULE
*****
 29 32 0 0 0
SMALL
GASTEIGER

@<TRIPOS>ATOM
      1 C         142.5553  141.8520  167.4579 C.2     1  UNL1       -0.0161
      2 C         142.8638  142.5278  168.7610 C.2     1  UNL1       -0.0023
      3 C         141.9514  142.3414  169.9369 C.2     1  UNL1        0.0203
      4 C         140.7306  141.4792  169.8098 C.2     1  UNL1        0.1008
      5 N         139.6546  141.1123  170.7884 N.2     1  UNL1       -0.1481
      6 N         138.6811  140.2097  170.0901 N.2     1  UNL1       -0.1436
      7 C         139.1555  140.0188  168.6800 C.2     1  UNL1        0.1537
      8 C         140.4221  140.8034  168.5067 C.2     1  UNL1        0.0255
      9 C         141.3344  140.9898  167.3308 C.3     1  UNL1        0.0560
     10 C         144.5548  141.1172  164.1095 C.ar    1  UNL1        0.0264
     11 C         145.2923  142.4111  163.9299 C.ar    1  UNL1        0.0970
     12 N         145.1174  143.5186  164.9263 N.ar    1  UNL1       -0.2426
     13 C         144.2050  143.3322  166.1024 C.ar    1  UNL1        0.0985
     14 C         143.4676  142.0384  166.2819 C.ar    1  UNL1        0.0153
     15 C         143.6425  140.9309  165.2855 C.ar    1  UNL1        0.0009
     16 C         144.7298  140.0097  163.1131 C.3     1  UNL1        0.1702
     17 C         144.0082  139.1715  160.7621 C.3     1  UNL1        0.1746
     18 O         144.5038  140.2715  161.6534 O.3     1  UNL1       -0.3463
     19 C         138.4815  139.1890  167.6277 C.2     1  UNL1        0.2651
     20 O         137.2959  138.3426  167.9854 O.2     1  UNL1       -0.2684
     21 N         138.9932  139.2055  166.2178 N.am    1  UNL1       -0.2996
     22 H         139.7713  139.7610  165.9830 H       1  UNL1        0.1498
     23 C         138.3192  138.3757  165.1656 C.3     1  UNL1        0.0899
     24 C         139.0005  138.1331  163.8514 C.3     1  UNL1        0.0246
     25 C         138.2561  138.3559  162.5683 C.3     1  UNL1        0.0338
     26 C         138.9372  138.1133  161.2541 C.3     1  UNL1        0.1422
     27 O         140.3628  137.6479  161.2229 O.3     1  UNL1       -0.3538
     28 C         141.1072  137.4251  162.5060 C.3     1  UNL1        0.1422
     29 C         140.4261  137.6677  163.8202 C.3     1  UNL1        0.0338
@<TRIPOS>BOND
     1    17    18    1
     2    18    16    1
     3    16    10    1
     4    10    11   ar
     5    11    12   ar
     6    12    13   ar
     7    13    14   ar
     8    14     1    1
     9     1     2    2
    10     2     3    1
    11     3     4    2
    12     4     5    1
    13     5     6    2
    14     6     7    1
    15     7    19    1
    16    19    20    2
    17    19    21   am
    18    21    23    1
    19    23    24    1
    20    24    25    1
    21    25    26    1
    22    26    27    1
    23    27    28    1
    24    28    29    1
    25     7     8    2
    26     8     9    1
    27    14    15   ar
    28    15    10   ar
    29     9     1    1
    30     8     4    1
    31    29    24    1
    32    21    22    1
@<TRIPOS>MOLECULE
*****
 29 32 0 0 0
SMALL
GASTEIGER

@<TRIPOS>ATOM
      1 C         139.1129  139.0645  165.2206 C.2     1  UNL1       -0.0161
      2 C         137.9284  138.5380  165.9754 C.2     1  UNL1       -0.0023
      3 C         137.8000  138.7996  167.4468 C.2     1  UNL1        0.0203
      4 C         138.8562  139.5876  168.1634 C.2     1  UNL1        0.1008
      5 N         138.9995  140.0012  169.5982 N.2     1  UNL1       -0.1481
      6 N         140.2726  140.7833  169.7301 N.2     1  UNL1       -0.1436
      7 C         140.9161  140.8531  168.3769 C.2     1  UNL1        0.1537
      8 C         140.0407  140.1141  167.4087 C.2     1  UNL1        0.0255
      9 C         140.1691  139.8525  165.9373 C.3     1  UNL1        0.0560
     10 C         140.6994  138.1606  161.6969 C.ar    1  UNL1        0.0264
     11 C         139.4983  138.2798  160.8063 C.ar    1  UNL1        0.0970
     12 N         138.1687  138.6606  161.3871 N.ar    1  UNL1       -0.2426
     13 C         138.0403  138.9221  162.8586 C.ar    1  UNL1        0.0985
     14 C         139.2414  138.8029  163.7491 C.ar    1  UNL1        0.0153
     15 C         140.5709  138.4222  163.1683 C.ar    1  UNL1        0.0009
     16 C         142.0290  137.7799  161.1161 C.3     1  UNL1        0.1702
     17 C         144.2349  138.9729  161.7949 C.3     1  UNL1        0.1746
     18 O         143.2639  137.8423  161.9653 O.3     1  UNL1       -0.3463
     19 C         142.2082  141.5410  168.0494 C.2     1  UNL1        0.2651
     20 O         143.2894  141.6384  169.0845 O.2     1  UNL1       -0.2684
     21 N         142.4191  142.1317  166.6868 N.am    1  UNL1       -0.2996
     22 H         141.7094  142.0678  166.0074 H       1  UNL1        0.1498
     23 C         143.7111  142.8196  166.3594 C.3     1  UNL1        0.0899
     24 C         144.0799  143.0815  164.9292 C.3     1  UNL1        0.0246
     25 C         143.6679  144.3650  164.2713 C.3     1  UNL1        0.0338
     26 C         144.0367  144.6269  162.8411 C.3     1  UNL1        0.1422
     27 O         144.8175  143.6052  162.0688 O.3     1  UNL1       -0.3538
     28 C         145.2296  142.3217  162.7267 C.3     1  UNL1        0.1422
     29 C         144.8608  142.0598  164.1569 C.3     1  UNL1        0.0338
@<TRIPOS>BOND
     1    17    18    1
     2    18    16    1
     3    16    10    1
     4    10    11   ar
     5    11    12   ar
     6    12    13   ar
     7    13    14   ar
     8    14     1    1
     9     1     2    2
    10     2     3    1
    11     3     4    2
    12     4     5    1
    13     5     6    2
    14     6     7    1
    15     7    19    1
    16    19    20    2
    17    19    21   am
    18    21    23    1
    19    23    24    1
    20    24    25    1
    21    25    26    1
    22    26    27    1
    23    27    28    1
    24    28    29    1
    25     7     8    2
    26     8     9    1
    27    14    15   ar
    28    15    10   ar
    29     9     1    1
    30     8     4    1
    31    29    24    1
    32    21    22    1
@<TRIPOS>MOLECULE
*****
 29 32 0 0 0
SMALL
GASTEIGER

@<TRIPOS>ATOM
      1 C         140.0235  142.0578  165.7596 C.2     1  UNL1       -0.0161
      2 C         139.7396  143.4993  166.0619 C.2     1  UNL1       -0.0023
      3 C         139.0366  144.3536  165.0491 C.2     1  UNL1        0.0203
      4 C         138.6175  143.7665  163.7339 C.2     1  UNL1        0.1008
      5 N         137.9136  144.3587  162.5491 N.2     1  UNL1       -0.1481
      6 N         137.7625  143.2831  161.5145 N.2     1  UNL1       -0.1436
      7 C         138.3730  142.0262  162.0600 C.2     1  UNL1        0.1537
      8 C         138.9014  142.3250  163.4316 C.2     1  UNL1        0.0255
      9 C         139.6044  141.4706  164.4445 C.3     1  UNL1        0.0560
     10 C         140.8559  140.1930  169.1625 C.ar    1  UNL1        0.0264
     11 C         142.1325  139.4946  168.7982 C.ar    1  UNL1        0.0970
     12 N         142.7061  139.6507  167.4210 N.ar    1  UNL1       -0.2426
     13 C         142.0031  140.5051  166.4081 C.ar    1  UNL1        0.0985
     14 C         140.7265  141.2034  166.7725 C.ar    1  UNL1        0.0153
     15 C         140.1529  141.0473  168.1497 C.ar    1  UNL1        0.0009
     16 C         140.2823  140.0369  170.5397 C.3     1  UNL1        0.1702
     17 C         141.6835  142.0671  171.3553 C.3     1  UNL1        0.1746
     18 O         140.7239  140.9510  171.6441 O.3     1  UNL1       -0.3463
     19 C         138.4428  140.7029  161.3572 C.2     1  UNL1        0.2651
     20 O         137.9729  139.4592  162.0515 O.2     1  UNL1       -0.2684
     21 N         138.9825  140.6234  159.9599 N.am    1  UNL1       -0.2996
     22 H         139.2910  141.4397  159.5041 H       1  UNL1        0.1498
     23 C         139.0524  139.3001  159.2571 C.3     1  UNL1        0.0899
     24 C         140.3833  138.6610  158.9918 C.3     1  UNL1        0.0246
     25 C         140.7145  138.1609  157.6170 C.3     1  UNL1        0.0338
     26 C         142.0454  137.5218  157.3517 C.3     1  UNL1        0.1422
     27 O         143.0451  137.3828  158.4613 O.3     1  UNL1       -0.3538
     28 C         142.7139  137.8829  159.8361 C.3     1  UNL1        0.1422
     29 C         141.3830  138.5220  160.1014 C.3     1  UNL1        0.0338
@<TRIPOS>BOND
     1    17    18    1
     2    18    16    1
     3    16    10    1
     4    10    11   ar
     5    11    12   ar
     6    12    13   ar
     7    13    14   ar
     8    14     1    1
     9     1     2    2
    10     2     3    1
    11     3     4    2
    12     4     5    1
    13     5     6    2
    14     6     7    1
    15     7    19    1
    16    19    20    2
    17    19    21   am
    18    21    23    1
    19    23    24    1
    20    24    25    1
    21    25    26    1
    22    26    27    1
    23    27    28    1
    24    28    29    1
    25     7     8    2
    26     8     9    1
    27    14    15   ar
    28    15    10   ar
    29     9     1    1
    30     8     4    1
    31    29    24    1
    32    21    22    1
@<TRIPOS>MOLECULE
*****
 29 32 0 0 0
SMALL
GASTEIGER

@<TRIPOS>ATOM
      1 C         140.8736  141.9676  166.3718 C.2     1  UNL1       -0.0161
      2 C         140.1992  143.1283  167.0409 C.2     1  UNL1       -0.0023
      3 C         140.1988  143.2347  168.5371 C.2     1  UNL1        0.0203
      4 C         140.8727  142.1802  169.3642 C.2     1  UNL1        0.1008
      5 N         141.0341  142.0184  170.8467 N.2     1  UNL1       -0.1481
      6 N         141.8083  140.7576  171.0937 N.2     1  UNL1       -0.1436
      7 C         142.1253  140.1402  169.7639 C.2     1  UNL1        0.1537
      8 C         141.5471  141.0195  168.6950 C.2     1  UNL1        0.0255
      9 C         141.5476  140.9132  167.1988 C.3     1  UNL1        0.0560
     10 C         140.3440  142.8844  162.5470 C.ar    1  UNL1        0.0264
     11 C         140.8751  141.6486  161.8830 C.ar    1  UNL1        0.0970
     12 N         141.4056  140.5191  162.7153 N.ar    1  UNL1       -0.2426
     13 C         141.4051  140.6255  164.2116 C.ar    1  UNL1        0.0985
     14 C         140.8741  141.8613  164.8755 C.ar    1  UNL1        0.0153
     15 C         140.3436  142.9907  164.0432 C.ar    1  UNL1        0.0009
     16 C         139.8135  144.0139  161.7147 C.3     1  UNL1        0.1702
     17 C         139.9733  144.3273  159.1405 C.3     1  UNL1        0.1746
     18 O         139.2819  143.7457  160.3378 O.3     1  UNL1       -0.3463
     19 C         142.8869  138.8672  169.5419 C.2     1  UNL1        0.2651
     20 O         143.2985  138.4715  168.1549 O.2     1  UNL1       -0.2684
     21 N         143.2368  137.9897  170.7071 N.am    1  UNL1       -0.2996
     22 H         142.9667  138.2493  171.6175 H       1  UNL1        0.1498
     23 C         143.9984  136.7166  170.4851 C.3     1  UNL1        0.0899
     24 C         144.8745  136.1675  171.5719 C.3     1  UNL1        0.0246
     25 C         145.8048  137.0780  172.3171 C.3     1  UNL1        0.0338
     26 C         146.6810  136.5290  173.4038 C.3     1  UNL1        0.1422
     27 O         146.6267  135.0694  173.7453 O.3     1  UNL1       -0.3538
     28 C         145.6964  134.1589  173.0001 C.3     1  UNL1        0.1422
     29 C         144.8202  134.7079  171.9134 C.3     1  UNL1        0.0338
@<TRIPOS>BOND
     1    17    18    1
     2    18    16    1
     3    16    10    1
     4    10    11   ar
     5    11    12   ar
     6    12    13   ar
     7    13    14   ar
     8    14     1    1
     9     1     2    2
    10     2     3    1
    11     3     4    2
    12     4     5    1
    13     5     6    2
    14     6     7    1
    15     7    19    1
    16    19    20    2
    17    19    21   am
    18    21    23    1
    19    23    24    1
    20    24    25    1
    21    25    26    1
    22    26    27    1
    23    27    28    1
    24    28    29    1
    25     7     8    2
    26     8     9    1
    27    14    15   ar
    28    15    10   ar
    29     9     1    1
    30     8     4    1
    31    29    24    1
    32    21    22    1
